/*--------------------------------*- C++ -*----------------------------------*\
| =========                 |                                                 |
| \\      /  F ield         | OpenFOAM: The Open Source CFD Toolbox           |
|  \\    /   O peration     | Version:  3.0.1                                 |
|   \\  /    A nd           | Web:      www.OpenFOAM.org                      |
|    \\/     M anipulation  |                                                 |
\*---------------------------------------------------------------------------*/
FoamFile
{
    version     2.0;
    format      ascii;
    class       volScalarField;
    object      G;
}
// * * * * * * * * * * * * * * * * * * * * * * * * * * * * * * * * * * * * * //

dimensions      [1 0 -3 0 0 0 0];

internalField   uniform 0;

boundaryField
{

    "Inlet|Outlet|Outterwall"
    {
        type            MarshakRadiation;
        T               T;
        emissivityMode  lookup;
        emissivity      uniform 1;
        value           uniform 0;
    }

    Innerwall      
    {
        type            MarshakRadiation;
        T               T;
        emissivityMode  lookup;
        emissivity      uniform 0.96;
        value           uniform 0;
    }
}

// ************************************************************************* //
