/*--------------------------------*- C++ -*----------------------------------*\
| =========                 |                                                 |
| \\      /  F ield         | OpenFOAM: The Open Source CFD Toolbox           |
|  \\    /   O peration     | Version:  4.0                                   |
|   \\  /    A nd           | Web:      www.OpenFOAM.org                      |
|    \\/     M anipulation  |                                                 |
\*---------------------------------------------------------------------------*/
FoamFile
{
    version     2.0;
    format      ascii;
    class       scalarListList;
    location    "constant";
    object      F;
}
// * * * * * * * * * * * * * * * * * * * * * * * * * * * * * * * * * * * * * //


1061
(

338
(
2.099107e-05
2.0973128e-05
2.0955245e-05
2.0950296e-05
2.0960158e-05
0.0011147955
0.0007208042
0.00044089552
0.0016237334
2.0973128e-05
0.00015266999
2.8903175e-06
4.0465353e-05
0.18977302
0.15571438
0.02386997
0.025827851
0.0051066352
0.0057664331
0.0018464966
0.0021070115
0.00086544499
0.00099160899
0.00047302086
0.0005430789
0.0003836725
0.18977302
0.02386997
0.0051066352
0.0018464966
0.00086544499
0.0005575205
0.15571438
0.025827851
0.0057664331
0.0021070115
0.00099160899
0.0005430789
0.023131092
0.014414613
0.0050960389
0.0036577572
0.0015801761
0.0011681908
0.00065023366
0.00048587487
0.00032281197
0.00024239945
0.00018184443
0.00013690367
0.00011199374
8.4446019e-05
7.3668644e-05
5.5602711e-05
5.0963652e-05
3.8491336e-05
3.6685644e-05
2.7720618e-05
2.7269036e-05
2.0612285e-05
2.0812598e-05
1.5736038e-05
1.6240579e-05
1.2281677e-05
1.2913622e-05
9.7672618e-06
1.0435675e-05
7.8940584e-06
8.5525854e-06
6.4702638e-06
7.0962102e-06
5.3689329e-06
5.9523154e-06
4.5037914e-06
5.041457e-06
3.8148229e-06
4.30723e-06
3.2594061e-06
3.7088401e-06
2.8067096e-06
3.2162901e-06
2.4340583e-06
2.8071894e-06
2.1245245e-06
2.4645964e-06
1.8652984e-06
2.1755331e-06
1.6465662e-06
1.9299443e-06
1.4607234e-06
1.7199579e-06
1.3018162e-06
1.5393517e-06
1.1651382e-06
1.3831635e-06
1.0469358e-06
1.2474037e-06
9.441908e-07
1.1288396e-06
8.5445779e-07
1.0248334e-06
7.7574105e-07
9.3321825e-07
7.0640108e-07
8.5220286e-07
6.4508264e-07
7.8029792e-07
5.9065881e-07
7.1625826e-07
5.4218741e-07
6.5903743e-07
4.988766e-07
6.0775168e-07
4.6005761e-07
5.6165117e-07
4.2516303e-07
5.2009694e-07
3.9370931e-07
4.8254218e-07
3.6528266e-07
4.4851716e-07
3.3952757e-07
4.1761681e-07
3.1613749e-07
3.8949055e-07
2.9484711e-07
3.63834e-07
2.7542605e-07
3.4038195e-07
2.576736e-07
3.1890266e-07
2.4141437e-07
2.9919301e-07
2.2649462e-07
2.8107447e-07
2.1277922e-07
2.6438967e-07
2.0014908e-07
2.4899959e-07
1.8849896e-07
2.3478105e-07
1.7773564e-07
2.2162467e-07
1.6777632e-07
2.0943309e-07
1.5854732e-07
1.981195e-07
1.4998291e-07
1.8760625e-07
1.4202434e-07
1.7782382e-07
1.3461897e-07
1.687098e-07
1.2771958e-07
1.6020807e-07
1.2128367e-07
1.5226806e-07
1.1527297e-07
1.4484414e-07
1.0965295e-07
1.3789505e-07
1.0439236e-07
1.3138344e-07
9.9462947e-08
1.2527541e-07
9.4839041e-08
1.1954019e-07
9.049734e-08
1.1414975e-07
8.6416642e-08
1.0907857e-07
8.2577627e-08
1.0430337e-07
7.8962665e-08
9.9802856e-08
7.5555647e-08
9.555757e-08
7.2341835e-08
9.154967e-08
6.9307726e-08
8.7762794e-08
6.6440935e-08
8.4181914e-08
6.3730085e-08
8.0793212e-08
6.1164717e-08
7.7583968e-08
5.8735201e-08
7.4542458e-08
5.6432663e-08
7.1657867e-08
5.4248914e-08
6.8920203e-08
5.2176393e-08
6.632023e-08
5.0208108e-08
6.3849401e-08
4.8337587e-08
6.1499795e-08
4.6558835e-08
5.9264069e-08
4.4866294e-08
5.7135407e-08
4.3254802e-08
5.5107476e-08
4.1719566e-08
5.3174387e-08
4.025613e-08
5.1330661e-08
3.8860343e-08
4.9571193e-08
3.7528343e-08
4.7891225e-08
3.6256526e-08
4.6286317e-08
3.5041532e-08
4.4752322e-08
3.3880223e-08
4.3285369e-08
3.2769666e-08
4.1881833e-08
3.1707119e-08
4.0538325e-08
3.0690014e-08
3.925167e-08
2.971595e-08
3.8018892e-08
2.8782673e-08
3.68372e-08
2.788807e-08
3.5703976e-08
2.7030159e-08
3.461676e-08
2.6207078e-08
3.357324e-08
2.5417077e-08
3.2571244e-08
2.4658511e-08
0.014414613
0.0036577572
0.0011681908
0.00048587487
0.00024239945
0.00013690367
8.4446019e-05
5.5602711e-05
3.8491336e-05
2.7720618e-05
2.0612285e-05
1.5736038e-05
1.2281677e-05
9.7672618e-06
7.8940584e-06
6.4702638e-06
5.3689329e-06
4.5037914e-06
3.8148229e-06
3.2594061e-06
2.8067096e-06
2.4340583e-06
2.1245245e-06
1.8652984e-06
1.6465662e-06
1.4607234e-06
1.3018162e-06
1.1651382e-06
1.0469358e-06
9.441908e-07
8.5445779e-07
7.7574105e-07
7.0640108e-07
6.4508264e-07
5.9065881e-07
5.4218741e-07
4.988766e-07
4.6005761e-07
4.2516303e-07
3.9370931e-07
3.6528266e-07
3.3952757e-07
3.1613749e-07
2.9484711e-07
2.7542605e-07
2.576736e-07
2.4141437e-07
2.2649462e-07
2.1277922e-07
2.0014908e-07
1.8849896e-07
1.7773564e-07
1.6777632e-07
1.5854732e-07
1.4998291e-07
1.4202434e-07
1.3461897e-07
1.2771958e-07
1.2128367e-07
1.1527297e-07
1.0965295e-07
1.0439236e-07
9.9462947e-08
9.4839041e-08
9.049734e-08
8.6416642e-08
8.2577627e-08
7.8962665e-08
7.5555647e-08
7.2341835e-08
6.9307726e-08
6.6440935e-08
6.3730085e-08
6.1164717e-08
5.8735201e-08
5.6432663e-08
5.4248914e-08
5.2176393e-08
5.0208108e-08
4.8337587e-08
4.6558835e-08
4.4866294e-08
4.3254802e-08
4.1719566e-08
4.025613e-08
3.8860343e-08
3.7528343e-08
3.6256526e-08
3.5041532e-08
3.3880223e-08
3.2769666e-08
3.1707119e-08
3.0690014e-08
2.971595e-08
2.8782673e-08
2.788807e-08
2.7030159e-08
2.6207078e-08
2.5417077e-08
2.4658511e-08
)


444
(
2.098954e-05
2.0974658e-05
2.0959248e-05
2.0955244e-05
2.0964167e-05
2.097656e-05
0.0011157118
0.00072147071
0.0012907754
0.00044067002
0.0016221436
2.0969128e-05
0.00015259944
0.19753523
0.17247952
0.14472657
0.023504774
0.024771854
0.026638216
0.0049905388
0.0054032379
0.0060592193
0.0018012315
0.0019629669
0.00222437
0.00084362909
0.0009217311
0.0010487722
0.00046093517
0.0005042438
0.00057491078
0.00037799687
0.17239653
0.024785377
0.0054068322
0.0019643271
0.0009223797
0.00059477681
0.14493766
0.026626461
0.0060543809
0.0022223927
0.0010478025
0.00057436901
0.014432217
0.023150244
0.014420475
0.0044275625
0.003658812
0.0050957245
0.0036560316
0.0012038062
0.0011680534
0.001579462
0.0011671823
0.00040196816
0.00048573617
0.0006498366
0.00048537716
0.00017040817
0.00024231079
0.00032259054
0.00024213254
8.5803527e-05
0.00013684763
0.00018171228
0.00013674723
4.8705368e-05
8.440925e-05
0.00011190963
8.4347423e-05
3.0133714e-05
5.5577569e-05
7.3612171e-05
5.5536904e-05
1.9879861e-05
3.8473494e-05
5.0924046e-05
3.8445364e-05
1.3780139e-05
2.7707545e-05
3.665686e-05
2.7687298e-05
9.933447e-06
2.0602443e-05
2.7247491e-05
2.0587393e-05
7.3913123e-06
1.5728454e-05
2.0796067e-05
1.5716968e-05
5.6456779e-06
1.2275715e-05
1.6227628e-05
1.2266753e-05
4.4081114e-06
9.7624943e-06
1.2903291e-05
9.7553679e-06
3.5067528e-06
7.890188e-06
1.0427306e-05
7.8844292e-06
2.8349339e-06
6.46708e-06
8.5457122e-06
6.4623604e-06
2.324098e-06
5.3662832e-06
7.0904977e-06
5.3623673e-06
1.9288327e-06
4.5015631e-06
5.947517e-06
4.4982785e-06
1.6182542e-06
3.8129315e-06
5.0373881e-06
3.8101496e-06
1.3708662e-06
3.2577873e-06
4.3037501e-06
3.2554105e-06
1.1713956e-06
2.8053135e-06
3.7058411e-06
2.803267e-06
1.0087899e-06
2.432846e-06
3.2136875e-06
2.4310712e-06
8.7491761e-07
2.1234651e-06
2.8049163e-06
2.1219161e-06
7.6370668e-07
1.8643674e-06
2.4625996e-06
1.8630074e-06
6.7056098e-07
1.6457436e-06
2.1737697e-06
1.6445432e-06
5.919585e-07
1.4599931e-06
1.9283792e-06
1.4589282e-06
5.2516966e-07
1.3011649e-06
1.7185626e-06
1.3002159e-06
4.6805697e-07
1.1645549e-06
1.5381024e-06
1.1637055e-06
4.1893053e-07
1.0464114e-06
1.3820406e-06
1.0456481e-06
3.7644241e-07
9.4371763e-07
1.2463907e-06
9.4302934e-07
3.3950864e-07
8.540294e-07
1.1279227e-06
8.5340653e-07
3.072508e-07
7.7535196e-07
1.0240008e-06
7.7478648e-07
2.7895199e-07
7.0604665e-07
9.3245991e-07
7.0553171e-07
2.540232e-07
6.4475886e-07
8.5151021e-07
6.4428863e-07
2.3197753e-07
5.9036226e-07
7.796636e-07
5.899317e-07
2.1241004e-07
5.4191512e-07
7.1567591e-07
5.415199e-07
1.9498218e-07
4.9862599e-07
6.5850153e-07
4.9826235e-07
1.794094e-07
4.5982645e-07
6.0725741e-07
4.5949111e-07
1.6545136e-07
4.2494936e-07
5.6119434e-07
4.2463945e-07
1.5290413e-07
3.9351141e-07
5.1967385e-07
3.9322443e-07
1.4159391e-07
3.6509901e-07
4.8214961e-07
3.6483275e-07
1.3137197e-07
3.3935684e-07
4.4815223e-07
3.3910936e-07
1.2211054e-07
3.1597849e-07
4.1727698e-07
3.1574806e-07
1.1369942e-07
2.946988e-07
3.8917359e-07
2.9448389e-07
1.0604324e-07
2.7528749e-07
3.6353789e-07
2.7508673e-07
9.905918e-08
2.5754395e-07
3.4010491e-07
2.5735614e-07
9.2675089e-08
2.4129288e-07
3.1864308e-07
2.4111692e-07
8.682791e-08
2.2638063e-07
2.9894946e-07
2.2621554e-07
8.1462375e-08
2.1267212e-07
2.8084565e-07
2.1251703e-07
7.6529905e-08
2.0004833e-07
2.6417443e-07
1.9990245e-07
7.1987679e-08
1.8840407e-07
2.4879687e-07
1.8826668e-07
6.7797861e-08
1.7764615e-07
2.3458989e-07
1.7751661e-07
6.3926931e-08
1.6769184e-07
2.2144421e-07
1.6756955e-07
6.0345123e-08
1.5846748e-07
2.0926256e-07
1.5835192e-07
5.7025943e-08
1.4990738e-07
1.9795816e-07
1.4979806e-07
5.3945758e-08
1.4195281e-07
1.8745347e-07
1.4184929e-07
5.1083442e-08
1.3455117e-07
1.7767901e-07
1.3445305e-07
4.8420068e-08
1.2765524e-07
1.685724e-07
1.2756216e-07
4.5938652e-08
1.2122257e-07
1.6007759e-07
1.2113417e-07
4.3623918e-08
1.152149e-07
1.5214404e-07
1.1513088e-07
4.1462103e-08
1.095977e-07
1.4472616e-07
1.0951778e-07
3.9440787e-08
1.0433977e-07
1.3778273e-07
1.0426368e-07
3.7548739e-08
9.9412834e-08
1.3127642e-07
9.934034e-08
3.577579e-08
9.4791255e-08
1.2517337e-07
9.4722131e-08
3.4112715e-08
9.045174e-08
1.1944281e-07
9.0385781e-08
3.2551134e-08
8.6373096e-08
1.1405676e-07
8.6310112e-08
3.1083421e-08
8.2536014e-08
1.0898971e-07
8.2475827e-08
2.9702629e-08
7.8922871e-08
1.0421839e-07
7.886532e-08
2.8402418e-08
7.5517569e-08
9.9721549e-08
7.5462501e-08
2.7176994e-08
7.2305376e-08
9.547972e-08
7.225265e-08
2.6021058e-08
6.9272795e-08
9.1475084e-08
6.922228e-08
2.4929753e-08
6.6407447e-08
8.7691292e-08
6.6359022e-08
2.3898625e-08
6.3697962e-08
8.4113328e-08
6.3651513e-08
2.2923583e-08
6.1133886e-08
8.0727386e-08
6.1089307e-08
2.2000865e-08
5.8705594e-08
7.7520755e-08
5.8662786e-08
2.1127008e-08
5.6404216e-08
7.4481723e-08
5.6363085e-08
2.0298821e-08
5.4221567e-08
7.159948e-08
5.4182029e-08
1.9513358e-08
5.2150091e-08
6.8864046e-08
5.2112063e-08
1.8767901e-08
5.0182797e-08
6.6266191e-08
5.0146203e-08
1.8059934e-08
4.8313218e-08
6.3797375e-08
4.8277988e-08
1.7387129e-08
4.6535363e-08
6.1449683e-08
4.6501429e-08
1.6747332e-08
4.4843674e-08
5.9215778e-08
4.4810974e-08
1.6138542e-08
4.3232994e-08
5.708885e-08
4.3201468e-08
1.5558903e-08
4.1698532e-08
5.506257e-08
4.1668126e-08
1.5006692e-08
4.0235833e-08
5.3131057e-08
4.0206493e-08
1.4480305e-08
3.884075e-08
5.1288833e-08
3.8812427e-08
1.3978251e-08
3.7509421e-08
4.9530798e-08
3.7482069e-08
1.3499139e-08
3.6238245e-08
4.7852198e-08
3.621182e-08
1.3041674e-08
3.5023863e-08
4.6248597e-08
3.4998324e-08
1.2604647e-08
3.3863139e-08
4.4715853e-08
3.3838446e-08
1.218693e-08
3.2753142e-08
4.3250094e-08
3.2729258e-08
1.1787467e-08
3.169113e-08
4.1847702e-08
3.1668021e-08
1.1405272e-08
3.0674539e-08
4.0505289e-08
3.0652171e-08
1.1039422e-08
2.9700965e-08
3.9219682e-08
2.9679307e-08
1.0689054e-08
2.8768158e-08
3.7987908e-08
2.8747181e-08
1.0353356e-08
2.7874006e-08
3.680718e-08
2.7853681e-08
1.0031568e-08
2.7016528e-08
3.5674879e-08
2.6996827e-08
9.7229783e-09
2.6193862e-08
3.4588548e-08
2.6174761e-08
9.4269163e-09
2.5404259e-08
3.3545879e-08
2.5385734e-08
9.1427529e-09
2.4646075e-08
3.2544698e-08
2.4628103e-08
8.8698962e-09
)


522
(
2.0985531e-05
2.0973128e-05
2.0960778e-05
2.0959248e-05
2.0969122e-05
2.0980575e-05
0.0011160709
0.00072188305
0.0012918272
0.0016204317
2.0964183e-05
0.00015252984
0.18971282
0.18987707
0.1555113
0.023866584
0.023858525
0.025842094
0.0051061999
0.0051035931
0.0057713985
0.0018463663
0.0018453463
0.0021089873
0.000865389
0.00086489676
0.00099256874
0.00047299163
0.00047271876
0.00054361263
0.00037101008
0.15564131
0.025840605
0.0057700374
0.0021083941
0.00099227165
0.00064060759
0.014439396
0.023166738
0.014433238
0.0044320553
0.003657863
0.0050954979
0.0036564552
0.0012043921
0.0011673582
0.0015788688
0.0011669224
0.0004020365
0.00048538001
0.00064950505
0.00048520119
0.00017041329
8.585697e-05
0.00024211717
0.00032240535
0.00024202856
8.5800201e-05
4.8733863e-05
0.00013673339
0.00018160169
0.00013668354
4.8701636e-05
3.0150656e-05
8.4336986e-05
0.00011183922
8.4306303e-05
3.0130719e-05
1.9890743e-05
5.5529227e-05
7.3564881e-05
5.5509054e-05
1.9877592e-05
1.3787543e-05
3.8439672e-05
5.0890875e-05
3.8425721e-05
1.3778429e-05
2.7683006e-05
3.663275e-05
2.7672966e-05
9.9321437e-06
7.395192e-06
2.0584096e-05
2.7229443e-05
2.0576635e-05
7.3903039e-06
5.6486188e-06
1.5714391e-05
2.078222e-05
1.5708697e-05
5.6448854e-06
4.4103941e-06
1.2264705e-05
1.6216778e-05
1.2260262e-05
4.4074792e-06
3.5085601e-06
9.7537162e-06
1.2894637e-05
9.7501839e-06
3.5062414e-06
2.8363895e-06
7.8830794e-06
1.0420294e-05
7.8802251e-06
2.834515e-06
2.3252876e-06
6.4612441e-06
8.5399537e-06
6.458905e-06
2.3237509e-06
1.9298175e-06
5.3614342e-06
7.0857117e-06
5.3594935e-06
1.9285422e-06
1.6190786e-06
4.497491e-06
5.9434968e-06
4.4958632e-06
1.6180087e-06
1.3715633e-06
3.8094792e-06
5.0339789e-06
3.8081005e-06
1.3706569e-06
1.1719903e-06
3.2548352e-06
4.3008345e-06
3.2536574e-06
1.1712159e-06
1.0093014e-06
2.8027698e-06
3.7033284e-06
2.8017556e-06
1.0086344e-06
8.7536071e-07
2.4306387e-06
3.2115068e-06
2.4297592e-06
8.7478229e-07
7.6409307e-07
2.1215375e-06
2.8030118e-06
2.1207699e-06
7.6358817e-07
6.7089995e-07
1.8626742e-06
2.4609266e-06
1.8620003e-06
6.7045664e-07
5.922575e-07
1.6442484e-06
2.1722921e-06
1.6436536e-06
5.9186616e-07
5.2543474e-07
1.4586662e-06
1.9270678e-06
1.4581385e-06
5.2508756e-07
4.6829308e-07
1.299982e-06
1.7173934e-06
1.2995117e-06
4.6798365e-07
4.1914174e-07
1.1634959e-06
1.5370556e-06
1.163075e-06
4.1886479e-07
3.7663211e-07
1.0454595e-06
1.3810998e-06
1.0450814e-06
3.7638325e-07
3.3967965e-07
9.4285904e-07
1.245542e-06
9.4251797e-07
3.3945521e-07
3.074055e-07
8.5325225e-07
1.1271544e-06
8.5294361e-07
3.0720238e-07
7.7464628e-07
1.0233032e-06
7.7436607e-07
2.7890798e-07
2.5415102e-07
7.0540393e-07
9.3182449e-07
7.0514878e-07
2.5398309e-07
6.4417185e-07
8.5092985e-07
6.4393884e-07
2.3194086e-07
2.1251685e-07
5.898247e-07
7.7913211e-07
5.8961135e-07
2.1237643e-07
1.9508021e-07
5.4142161e-07
7.1518796e-07
5.4122577e-07
1.9495131e-07
1.7949958e-07
4.9817185e-07
6.5805249e-07
4.9799166e-07
1.7938098e-07
1.655345e-07
4.594076e-07
6.0684326e-07
4.5924144e-07
1.6542513e-07
1.5298095e-07
4.2456224e-07
5.6081156e-07
4.2440868e-07
1.5287987e-07
1.4166503e-07
3.931529e-07
5.1931935e-07
3.930107e-07
1.4157143e-07
3.6476635e-07
4.8182066e-07
3.6463442e-07
1.3135111e-07
1.2217186e-07
3.3904762e-07
4.4784645e-07
3.3892499e-07
1.2209114e-07
1.1375651e-07
3.1569055e-07
4.1699224e-07
3.1557637e-07
1.1368135e-07
1.0609648e-07
2.9443023e-07
3.88908e-07
2.9432374e-07
1.0602637e-07
2.7503659e-07
3.6328978e-07
2.7493712e-07
9.9043419e-08
9.2721601e-08
2.5730922e-07
3.3987277e-07
2.5721615e-07
9.2660337e-08
8.6871483e-08
2.4107295e-07
3.1842558e-07
2.4098576e-07
8.6814084e-08
2.2617427e-07
2.9874538e-07
2.2609247e-07
8.14494e-08
7.6568302e-08
2.1247825e-07
2.8065392e-07
2.1240141e-07
7.6517711e-08
1.9986596e-07
2.6399407e-07
1.9979368e-07
7.1976206e-08
6.7831871e-08
1.8823231e-07
2.48627e-07
1.8816423e-07
6.7787053e-08
6.3958996e-08
1.7748419e-07
2.3442971e-07
1.7742e-07
6.3916737e-08
6.0375389e-08
1.6753895e-07
2.21293e-07
1.6747835e-07
6.0335498e-08
5.7054542e-08
1.5832299e-07
2.0911966e-07
1.5826573e-07
5.7016845e-08
5.3972811e-08
1.4977069e-07
1.9782298e-07
1.4971653e-07
5.393715e-08
5.1109058e-08
1.4182337e-07
1.8732546e-07
1.4177208e-07
5.1075289e-08
4.8444347e-08
1.3442848e-07
1.7755766e-07
1.3437986e-07
4.8412339e-08
4.5961686e-08
1.2753884e-07
1.6845727e-07
1.2749271e-07
4.5931318e-08
4.364579e-08
1.2111203e-07
1.5996825e-07
1.2106823e-07
4.3616952e-08
4.148289e-08
1.1510983e-07
1.5204012e-07
1.150682e-07
4.1455481e-08
1.0949775e-07
1.4462731e-07
1.0945815e-07
3.9434486e-08
3.7567562e-08
1.0424461e-07
1.3768862e-07
1.0420691e-07
3.754274e-08
3.5793723e-08
9.9322169e-08
1.3118675e-07
9.9286249e-08
3.5770074e-08
9.4704803e-08
1.2508786e-07
9.4670553e-08
3.4107264e-08
3.2567449e-08
9.0369244e-08
1.1936122e-07
9.0336562e-08
3.2545931e-08
3.1099e-08
8.6294319e-08
1.1397884e-07
8.6263111e-08
3.1078453e-08
2.9717516e-08
8.2460734e-08
1.0891525e-07
8.2430913e-08
2.9697881e-08
2.8416652e-08
7.8850886e-08
1.0414719e-07
7.882237e-08
2.8397877e-08
2.7190614e-08
7.5448689e-08
9.9653421e-08
7.5421403e-08
2.7172648e-08
2.6034098e-08
7.2239424e-08
9.5414488e-08
7.2213299e-08
2.6016896e-08
2.4942245e-08
6.9209608e-08
9.1412587e-08
6.9184579e-08
2.4925766e-08
2.39106e-08
6.6346873e-08
8.7631378e-08
6.6322879e-08
2.3894802e-08
2.2935069e-08
6.3639859e-08
8.4055858e-08
6.3616844e-08
2.2919916e-08
2.2011889e-08
6.1078121e-08
8.0672228e-08
6.1056033e-08
2.1997345e-08
2.1137594e-08
5.8652043e-08
7.7467788e-08
5.8630832e-08
2.1123628e-08
2.0308992e-08
5.6352764e-08
7.4430831e-08
5.6332384e-08
2.0295573e-08
1.9523135e-08
5.4172106e-08
7.1550557e-08
5.4152515e-08
1.9510236e-08
1.8777304e-08
5.2102518e-08
6.8816991e-08
5.2083676e-08
1.8764898e-08
1.8068982e-08
5.0137018e-08
6.6220911e-08
5.0118887e-08
1.8057043e-08
4.8269145e-08
6.3753781e-08
4.8251689e-08
1.7384346e-08
1.6755722e-08
4.6492911e-08
6.1407692e-08
4.6476097e-08
1.6744651e-08
1.6146627e-08
4.4802764e-08
5.9175314e-08
4.4786562e-08
1.6135958e-08
1.5566698e-08
4.3193554e-08
5.7049838e-08
4.3177933e-08
1.5556412e-08
1.501421e-08
4.1660491e-08
5.5024943e-08
4.1645425e-08
1.500429e-08
1.4487559e-08
4.0199126e-08
5.3094749e-08
4.0184589e-08
1.4477987e-08
1.3985253e-08
3.8805315e-08
5.1253783e-08
3.8791282e-08
1.3976013e-08
1.3505901e-08
3.7475201e-08
4.949695e-08
3.7461648e-08
1.3496978e-08
1.3048207e-08
3.6205184e-08
4.7819497e-08
3.6192091e-08
1.3039586e-08
1.2610961e-08
3.499191e-08
4.6216991e-08
3.4979256e-08
1.2602629e-08
1.2193034e-08
3.3832245e-08
4.4685294e-08
3.382001e-08
1.2184978e-08
1.1793371e-08
3.272326e-08
4.3220537e-08
3.2711426e-08
1.1785579e-08
1.1410985e-08
3.1662217e-08
4.1819103e-08
3.1650767e-08
1.1403445e-08
1.1044952e-08
3.0646553e-08
4.0477607e-08
3.063547e-08
1.1037654e-08
1.0694408e-08
2.9673867e-08
3.9192878e-08
2.9663136e-08
1.0687342e-08
1.0358541e-08
2.8741911e-08
3.7961946e-08
2.8731517e-08
1.0351697e-08
1.0036593e-08
2.7848575e-08
3.6782024e-08
2.7838504e-08
1.0029961e-08
2.6991879e-08
3.5650497e-08
2.6982117e-08
9.7214208e-09
9.4316378e-09
2.6169963e-08
3.4564909e-08
2.6160499e-08
9.4254062e-09
9.147332e-09
2.538108e-08
3.3522952e-08
2.5371902e-08
9.1412882e-09
8.8743386e-09
2.4623588e-08
3.2522456e-08
2.4614683e-08
8.8684752e-09
)


507
(
2.0980575e-05
2.0969122e-05
2.0959248e-05
2.0960778e-05
2.0973128e-05
2.0985531e-05
0.0011157356
0.00072188305
0.0012932309
0.00044077869
0.0016192508
2.0960179e-05
4.0465491e-05
0.17232422
0.19768795
0.17225857
0.024778396
0.023495383
0.024789021
0.0054056964
0.0049877876
0.0054085324
0.0019639527
0.0018001731
0.0019650269
0.00092221112
0.00084312149
0.00092272346
0.00050451103
0.00046065462
0.00050479346
0.00036537889
0.14484555
0.02663656
0.0060577274
0.0022237167
0.0010484444
0.00067751942
0.14495787
0.026627881
0.0060545366
0.002222433
0.0010478183
0.00057437679
0.0044320553
0.014433238
0.023166738
0.014439396
0.0044337114
0.0012043921
0.0036564552
0.0050954979
0.003657863
0.001205149
0.0004020365
0.0011669224
0.0015788688
0.0011673582
0.00040230052
0.00017041329
0.00048520119
0.00064950505
0.00048538001
0.00017052591
8.5800201e-05
0.00024202856
0.00032240535
0.00024211717
8.585697e-05
4.8701636e-05
0.00013668354
0.00018160169
0.00013673339
4.8733863e-05
3.0130719e-05
8.4306303e-05
0.00011183922
8.4336986e-05
3.0150656e-05
1.9877592e-05
5.5509054e-05
7.3564881e-05
5.5529227e-05
1.9890743e-05
1.3778429e-05
3.8425721e-05
5.0890875e-05
3.8439672e-05
9.9321437e-06
2.7672966e-05
3.663275e-05
2.7683006e-05
7.3903039e-06
2.0576635e-05
2.7229443e-05
2.0584096e-05
5.6448854e-06
1.5708697e-05
2.078222e-05
1.5714391e-05
5.6486188e-06
4.4074792e-06
1.2260262e-05
1.6216778e-05
1.2264705e-05
3.5062414e-06
9.7501839e-06
1.2894637e-05
9.7537162e-06
2.834515e-06
7.8802251e-06
1.0420294e-05
7.8830794e-06
2.3237509e-06
6.458905e-06
8.5399537e-06
6.4612441e-06
1.9285422e-06
5.3594935e-06
7.0857117e-06
5.3614342e-06
1.6180087e-06
4.4958632e-06
5.9434968e-06
4.497491e-06
1.6190786e-06
1.3706569e-06
3.8081005e-06
5.0339789e-06
3.8094792e-06
1.3715633e-06
1.1712159e-06
3.2536574e-06
4.3008345e-06
3.2548352e-06
1.0086344e-06
2.8017556e-06
3.7033284e-06
2.8027698e-06
8.7478229e-07
2.4297592e-06
3.2115068e-06
2.4306387e-06
7.6358817e-07
2.1207699e-06
2.8030118e-06
2.1215375e-06
6.7045664e-07
1.8620003e-06
2.4609266e-06
1.8626742e-06
6.7089995e-07
5.9186616e-07
1.6436536e-06
2.1722921e-06
1.6442484e-06
5.2508756e-07
1.4581385e-06
1.9270678e-06
1.4586662e-06
5.2543474e-07
4.6798365e-07
1.2995117e-06
1.7173934e-06
1.299982e-06
4.1886479e-07
1.163075e-06
1.5370556e-06
1.1634959e-06
4.1914174e-07
3.7638325e-07
1.0450814e-06
1.3810998e-06
1.0454595e-06
3.3945521e-07
9.4251797e-07
1.245542e-06
9.4285904e-07
3.3967965e-07
3.0720238e-07
8.5294361e-07
1.1271544e-06
8.5325225e-07
2.7890798e-07
7.7436607e-07
1.0233032e-06
7.7464628e-07
2.5398309e-07
7.0514878e-07
9.3182449e-07
7.0540393e-07
2.5415102e-07
2.3194086e-07
6.4393884e-07
8.5092985e-07
6.4417185e-07
2.3209421e-07
2.1237643e-07
5.8961135e-07
7.7913211e-07
5.898247e-07
2.1251685e-07
1.9495131e-07
5.4122577e-07
7.1518796e-07
5.4142161e-07
1.7938098e-07
4.9799166e-07
6.5805249e-07
4.9817185e-07
1.7949958e-07
1.6542513e-07
4.5924144e-07
6.0684326e-07
4.594076e-07
1.655345e-07
1.5287987e-07
4.2440868e-07
5.6081156e-07
4.2456224e-07
1.4157143e-07
3.930107e-07
5.1931935e-07
3.931529e-07
1.4166503e-07
1.3135111e-07
3.6463442e-07
4.8182066e-07
3.6476635e-07
1.3143795e-07
1.2209114e-07
3.3892499e-07
4.4784645e-07
3.3904762e-07
1.2217186e-07
1.1368135e-07
3.1557637e-07
4.1699224e-07
3.1569055e-07
1.0602637e-07
2.9432374e-07
3.88908e-07
2.9443023e-07
1.0609648e-07
9.9043419e-08
2.7493712e-07
3.6328978e-07
2.7503659e-07
9.2660337e-08
2.5721615e-07
3.3987277e-07
2.5730922e-07
8.6814084e-08
2.4098576e-07
3.1842558e-07
2.4107295e-07
8.6871483e-08
8.14494e-08
2.2609247e-07
2.9874538e-07
2.2617427e-07
7.6517711e-08
2.1240141e-07
2.8065392e-07
2.1247825e-07
7.6568302e-08
7.1976206e-08
1.9979368e-07
2.6399407e-07
1.9986596e-07
7.2023794e-08
6.7787053e-08
1.8816423e-07
2.48627e-07
1.8823231e-07
6.7831871e-08
6.3916737e-08
1.7742e-07
2.3442971e-07
1.7748419e-07
6.3958996e-08
6.0335498e-08
1.6747835e-07
2.21293e-07
1.6753895e-07
6.0375389e-08
5.7016845e-08
1.5826573e-07
2.0911966e-07
1.5832299e-07
5.7054542e-08
5.393715e-08
1.4971653e-07
1.9782298e-07
1.4977069e-07
5.3972811e-08
5.1075289e-08
1.4177208e-07
1.8732546e-07
1.4182337e-07
5.1109058e-08
4.8412339e-08
1.3437986e-07
1.7755766e-07
1.3442848e-07
4.8444347e-08
4.5931318e-08
1.2749271e-07
1.6845727e-07
1.2753884e-07
4.5961686e-08
4.3616952e-08
1.2106823e-07
1.5996825e-07
1.2111203e-07
4.1455481e-08
1.150682e-07
1.5204012e-07
1.1510983e-07
4.148289e-08
3.9434486e-08
1.0945815e-07
1.4462731e-07
1.0949775e-07
3.9460559e-08
3.754274e-08
1.0420691e-07
1.3768862e-07
1.0424461e-07
3.7567562e-08
3.5770074e-08
9.9286249e-08
1.3118675e-07
9.9322169e-08
3.5793723e-08
3.4107264e-08
9.4670553e-08
1.2508786e-07
9.4704803e-08
3.4129814e-08
3.2545931e-08
9.0336562e-08
1.1936122e-07
9.0369244e-08
3.2567449e-08
3.1078453e-08
8.6263111e-08
1.1397884e-07
8.6294319e-08
3.1099e-08
2.9697881e-08
8.2430913e-08
1.0891525e-07
8.2460734e-08
2.9717516e-08
2.8397877e-08
7.882237e-08
1.0414719e-07
7.8850886e-08
2.7172648e-08
7.5421403e-08
9.9653421e-08
7.5448689e-08
2.7190614e-08
2.6016896e-08
7.2213299e-08
9.5414488e-08
7.2239424e-08
2.4925766e-08
6.9184579e-08
9.1412587e-08
6.9209608e-08
2.4942245e-08
2.3894802e-08
6.6322879e-08
8.7631378e-08
6.6346873e-08
2.39106e-08
2.2919916e-08
6.3616844e-08
8.4055858e-08
6.3639859e-08
2.2935069e-08
2.1997345e-08
6.1056033e-08
8.0672228e-08
6.1078121e-08
2.1123628e-08
5.8630832e-08
7.7467788e-08
5.8652043e-08
2.1137594e-08
2.0295573e-08
5.6332384e-08
7.4430831e-08
5.6352764e-08
2.0308992e-08
1.9510236e-08
5.4152515e-08
7.1550557e-08
5.4172106e-08
1.8764898e-08
5.2083676e-08
6.8816991e-08
5.2102518e-08
1.8777304e-08
1.8057043e-08
5.0118887e-08
6.6220911e-08
5.0137018e-08
1.7384346e-08
4.8251689e-08
6.3753781e-08
4.8269145e-08
1.739584e-08
1.6744651e-08
4.6476097e-08
6.1407692e-08
4.6492911e-08
1.6135958e-08
4.4786562e-08
5.9175314e-08
4.4802764e-08
1.6146627e-08
1.5556412e-08
4.3177933e-08
5.7049838e-08
4.3193554e-08
1.500429e-08
4.1645425e-08
5.5024943e-08
4.1660491e-08
1.501421e-08
1.4477987e-08
4.0184589e-08
5.3094749e-08
4.0199126e-08
1.4487559e-08
1.3976013e-08
3.8791282e-08
5.1253783e-08
3.8805315e-08
1.3496978e-08
3.7461648e-08
4.949695e-08
3.7475201e-08
1.3505901e-08
1.3039586e-08
3.6192091e-08
4.7819497e-08
3.6205184e-08
1.2602629e-08
3.4979256e-08
4.6216991e-08
3.499191e-08
1.2610961e-08
1.2184978e-08
3.382001e-08
4.4685294e-08
3.3832245e-08
1.1785579e-08
3.2711426e-08
4.3220537e-08
3.272326e-08
1.1793371e-08
1.1403445e-08
3.1650767e-08
4.1819103e-08
3.1662217e-08
1.1410985e-08
1.1037654e-08
3.063547e-08
4.0477607e-08
3.0646553e-08
1.0687342e-08
2.9663136e-08
3.9192878e-08
2.9673867e-08
1.0694408e-08
1.0351697e-08
2.8731517e-08
3.7961946e-08
2.8741911e-08
1.0358541e-08
1.0029961e-08
2.7838504e-08
3.6782024e-08
2.7848575e-08
1.0036593e-08
9.7214208e-09
2.6982117e-08
3.5650497e-08
2.6991879e-08
9.4254062e-09
2.6160499e-08
3.4564909e-08
2.6169963e-08
9.4316378e-09
9.1412882e-09
2.5371902e-08
3.3522952e-08
2.538108e-08
8.8684752e-09
2.4614683e-08
3.2522456e-08
2.4623588e-08
8.8743386e-09
)


437
(
2.097656e-05
2.0964167e-05
2.0955244e-05
2.0959248e-05
2.0974658e-05
2.098954e-05
0.0011148341
0.00072147071
0.0012944519
0.00044107146
0.0016190498
4.0474335e-05
0.15557397
0.18990179
0.18964119
0.025833479
0.023859679
0.023876965
0.0057688798
0.0051037199
0.0051088841
0.0021080152
0.001845381
0.0018473759
0.00099210176
0.00086491094
0.00086586928
0.00054335432
0.00047272594
0.00047325604
0.00036323378
0.1557514
0.025830057
0.005766662
0.0021070692
0.00099163127
0.00054308976
0.0044275625
0.014420475
0.023150244
0.014432217
0.0012038062
0.0036560316
0.0050957245
0.003658812
0.00040196816
0.0011671823
0.001579462
0.0011680534
0.00017040817
0.00048537716
0.0006498366
0.00048573617
8.5803527e-05
0.00024213254
0.00032259054
0.00024231079
4.8705368e-05
0.00013674723
0.00018171228
0.00013684763
3.0133714e-05
8.4347423e-05
0.00011190963
8.440925e-05
1.9879861e-05
5.5536904e-05
7.3612171e-05
5.5577569e-05
1.3780139e-05
3.8445364e-05
5.0924046e-05
3.8473494e-05
9.933447e-06
2.7687298e-05
3.665686e-05
2.7707545e-05
7.3913123e-06
2.0587393e-05
2.7247491e-05
2.0602443e-05
5.6456779e-06
1.5716968e-05
2.0796067e-05
1.5728454e-05
4.4081114e-06
1.2266753e-05
1.6227628e-05
1.2275715e-05
3.5067528e-06
9.7553679e-06
1.2903291e-05
9.7624943e-06
2.8349339e-06
7.8844292e-06
1.0427306e-05
7.890188e-06
2.324098e-06
6.4623604e-06
8.5457122e-06
6.46708e-06
1.9288327e-06
5.3623673e-06
7.0904977e-06
5.3662832e-06
1.6182542e-06
4.4982785e-06
5.947517e-06
4.5015631e-06
1.3708662e-06
3.8101496e-06
5.0373881e-06
3.8129315e-06
1.1713956e-06
3.2554105e-06
4.3037501e-06
3.2577873e-06
1.0087899e-06
2.803267e-06
3.7058411e-06
2.8053135e-06
8.7491761e-07
2.4310712e-06
3.2136875e-06
2.432846e-06
7.6370668e-07
2.1219161e-06
2.8049163e-06
2.1234651e-06
6.7056098e-07
1.8630074e-06
2.4625996e-06
1.8643674e-06
5.919585e-07
1.6445432e-06
2.1737697e-06
1.6457436e-06
5.2516966e-07
1.4589282e-06
1.9283792e-06
1.4599931e-06
4.6805697e-07
1.3002159e-06
1.7185626e-06
1.3011649e-06
4.1893053e-07
1.1637055e-06
1.5381024e-06
1.1645549e-06
3.7644241e-07
1.0456481e-06
1.3820406e-06
1.0464114e-06
3.3950864e-07
9.4302934e-07
1.2463907e-06
9.4371763e-07
3.072508e-07
8.5340653e-07
1.1279227e-06
8.540294e-07
2.7895199e-07
7.7478648e-07
1.0240008e-06
7.7535196e-07
2.540232e-07
7.0553171e-07
9.3245991e-07
7.0604665e-07
2.3197753e-07
6.4428863e-07
8.5151021e-07
6.4475886e-07
2.1241004e-07
5.899317e-07
7.796636e-07
5.9036226e-07
1.9498218e-07
5.415199e-07
7.1567591e-07
5.4191512e-07
1.794094e-07
4.9826235e-07
6.5850153e-07
4.9862599e-07
1.6545136e-07
4.5949111e-07
6.0725741e-07
4.5982645e-07
1.5290413e-07
4.2463945e-07
5.6119434e-07
4.2494936e-07
1.4159391e-07
3.9322443e-07
5.1967385e-07
3.9351141e-07
1.3137197e-07
3.6483275e-07
4.8214961e-07
3.6509901e-07
1.2211054e-07
3.3910936e-07
4.4815223e-07
3.3935684e-07
1.1369942e-07
3.1574806e-07
4.1727698e-07
3.1597849e-07
1.0604324e-07
2.9448389e-07
3.8917359e-07
2.946988e-07
9.905918e-08
2.7508673e-07
3.6353789e-07
2.7528749e-07
9.2675089e-08
2.5735614e-07
3.4010491e-07
2.5754395e-07
8.682791e-08
2.4111692e-07
3.1864308e-07
2.4129288e-07
8.1462375e-08
2.2621554e-07
2.9894946e-07
2.2638063e-07
7.6529905e-08
2.1251703e-07
2.8084565e-07
2.1267212e-07
7.1987679e-08
1.9990245e-07
2.6417443e-07
2.0004833e-07
6.7797861e-08
1.8826668e-07
2.4879687e-07
1.8840407e-07
6.3926931e-08
1.7751661e-07
2.3458989e-07
1.7764615e-07
6.0345123e-08
1.6756955e-07
2.2144421e-07
1.6769184e-07
5.7025943e-08
1.5835192e-07
2.0926256e-07
1.5846748e-07
5.3945758e-08
1.4979806e-07
1.9795816e-07
1.4990738e-07
5.1083442e-08
1.4184929e-07
1.8745347e-07
1.4195281e-07
4.8420068e-08
1.3445305e-07
1.7767901e-07
1.3455117e-07
4.5938652e-08
1.2756216e-07
1.685724e-07
1.2765524e-07
4.3623918e-08
1.2113417e-07
1.6007759e-07
1.2122257e-07
4.1462103e-08
1.1513088e-07
1.5214404e-07
1.152149e-07
3.9440787e-08
1.0951778e-07
1.4472616e-07
1.095977e-07
3.7548739e-08
1.0426368e-07
1.3778273e-07
1.0433977e-07
3.577579e-08
9.934034e-08
1.3127642e-07
9.9412834e-08
3.4112715e-08
9.4722131e-08
1.2517337e-07
9.4791255e-08
3.2551134e-08
9.0385781e-08
1.1944281e-07
9.045174e-08
3.1083421e-08
8.6310112e-08
1.1405676e-07
8.6373096e-08
2.9702629e-08
8.2475827e-08
1.0898971e-07
8.2536014e-08