/*--------------------------------*- C++ -*----------------------------------*\
| =========                 |                                                 |
| \\      /  F ield         | OpenFOAM: The Open Source CFD Toolbox           |
|  \\    /   O peration     | Version:  4.0                                   |
|   \\  /    A nd           | Web:      www.OpenFOAM.org                      |
|    \\/     M anipulation  |                                                 |
\*---------------------------------------------------------------------------*/
FoamFile
{
    version     2.0;
    format      ascii;
    class       scalarListList;
    location    "constant";
    object      F;
}
// * * * * * * * * * * * * * * * * * * * * * * * * * * * * * * * * * * * * * //


1034
(

419
(
0.0002187923
0.00021878562
0.00021875928
0.00021871621
0.00021868001
0.014779379
0.013106408
0.00021878835
0.009614024
0.00021877527
0.016873858
0.00021874649
0.0017968601
0.027532779
0.0019417242
9.9083568e-05
0.031684979
0.0027754457
0
0.0019562323
0.001220977
0.00093871982
0.00061506828
0.00041805551
0.00027726307
0.0002274694
0.000151474
0.00014141397
9.4336053e-05
9.6001518e-05
6.410098e-05
6.9295204e-05
4.629393e-05
5.2315415e-05
3.4962211e-05
4.086992e-05
2.73195e-05
3.2797507e-05
2.192704e-05
2.6895055e-05
1.798303e-05
2.2450639e-05
1.5012662e-05
1.9021555e-05
1.2720517e-05
1.6320969e-05
1.0915109e-05
1.4156492e-05
9.4679629e-06
1.2395226e-05
8.2903066e-06
1.0942998e-05
7.3192243e-06
9.7315834e-06
6.5091267e-06
8.7105797e-06
5.8263304e-06
7.8421042e-06
5.2455154e-06
7.0972409e-06
4.7473533e-06
6.4536112e-06
4.3168839e-06
5.8936776e-06
3.9423829e-06
5.403541e-06
3.6145571e-06
4.9720702e-06
3.3259646e-06
4.5902667e-06
3.0705884e-06
4.2507931e-06
2.8435221e-06
3.9476182e-06
2.6407322e-06
3.6757467e-06
2.4588791e-06
3.4310147e-06
2.2951777e-06
3.2099274e-06
2.1472907e-06
3.0095351e-06
2.0132456e-06
2.8273339e-06
1.8913681e-06
2.6611875e-06
1.7802287e-06
2.5092637e-06
1.678603e-06
2.369985e-06
1.5854351e-06
2.2419861e-06
1.4998124e-06
2.1240818e-06
1.4209416e-06
2.0152374e-06
1.3481311e-06
1.9145484e-06
1.2807759e-06
1.8212201e-06
1.2183444e-06
1.7345524e-06
1.1603679e-06
1.6539257e-06
1.1064331e-06
1.5787921e-06
1.0561721e-06
1.5086634e-06
1.0092593e-06
1.4431055e-06
9.6540362e-07
1.3817285e-06
9.2434523e-07
1.3241855e-06
8.8585108e-07
1.2701629e-06
8.4971208e-07
1.2193798e-06
8.1574016e-07
1.1715822e-06
7.8376516e-07
1.1265406e-06
7.5363399e-07
1.0840469e-06
7.2520729e-07
1.0439129e-06
6.9835887e-07
1.0059669e-06
6.7297406e-07
9.7005271e-07
6.4894866e-07
9.3602785e-07
6.2618694e-07
9.0376209e-07
6.0460212e-07
8.7313617e-07
5.841142e-07
8.4404068e-07
5.6465011e-07
8.1637597e-07
5.4614303e-07
7.9004903e-07
5.2853107e-07
7.6497527e-07
5.1175739e-07
7.4107656e-07
4.9576988e-07
7.182805e-07
4.8051968e-07
6.9652011e-07
4.6596263e-07
6.7573382e-07
4.5205695e-07
6.5586412e-07
4.3876459e-07
6.3685841e-07
4.2605003e-07
6.1866628e-07
4.1388011e-07
6.0124308e-07
4.0222439e-07
5.8454552e-07
3.9105411e-07
5.6853399e-07
3.8034255e-07
5.5317165e-07
3.7006569e-07
5.384233e-07
3.6019918e-07
5.2425714e-07
3.5072237e-07
5.1064273e-07
3.416143e-07
4.9755165e-07
3.3285669e-07
4.8495785e-07
3.2443128e-07
4.7283631e-07
3.1632218e-07
4.6116333e-07
3.0851347e-07
4.4991728e-07
3.0099028e-07
4.3907751e-07
2.9373839e-07
4.2862474e-07
2.8674597e-07
4.1854172e-07
2.8000051e-07
4.0880917e-07
2.7348913e-07
3.9941287e-07
2.6720306e-07
3.903366e-07
2.6113146e-07
3.8156614e-07
2.5526419e-07
3.7308796e-07
2.4959245e-07
3.6488921e-07
2.4410778e-07
3.5695804e-07
2.3880173e-07
3.4928295e-07
2.3366719e-07
3.4185245e-07
2.2869571e-07
3.3465605e-07
2.2388221e-07
3.2768494e-07
2.192189e-07
3.2092932e-07
2.1469903e-07
3.1438074e-07
2.1031786e-07
3.0803039e-07
2.0606964e-07
3.018705e-07
2.0194929e-07
0.0018248201
0.00091938023
0.00041444625
0.00022642
0.00014101147
9.5816743e-05
6.9199151e-05
5.2260745e-05
4.0836587e-05
3.2776055e-05
2.6880637e-05
2.2440595e-05
1.9014348e-05
1.6315664e-05
1.4152501e-05
1.2392167e-05
1.0940614e-05
9.7296984e-06
8.7090696e-06
7.8408803e-06
7.0962385e-06
6.4527823e-06
5.8929866e-06
5.4029601e-06
4.9715783e-06
4.5898476e-06
4.2504338e-06
3.947308e-06
3.675478e-06
3.4307805e-06
3.2097224e-06
3.0093549e-06
2.8271749e-06
2.6610464e-06
2.5091386e-06
2.3698736e-06
2.2418866e-06
2.1239918e-06
2.0151567e-06
1.9144755e-06
1.8211541e-06
1.7344923e-06
1.6538713e-06
1.5787425e-06
1.5086184e-06
1.4430639e-06
1.3816906e-06
1.3241505e-06
1.2701306e-06
1.2193503e-06
1.171555e-06
1.1265154e-06
1.0840237e-06
1.0438912e-06
1.0059466e-06
9.7003394e-07
9.3601043e-07
9.0374585e-07
8.7312095e-07
8.4402681e-07
8.1636278e-07
7.9003668e-07
7.6496377e-07
7.4106574e-07
7.1827018e-07
6.965103e-07
6.7572452e-07
6.5585532e-07
6.3685029e-07
6.1865918e-07
6.0123564e-07
5.8453909e-07
5.6852757e-07
5.5316556e-07
5.3841788e-07
5.2425172e-07
5.1063731e-07
4.9754657e-07
4.8495312e-07
4.7283157e-07
4.6115894e-07
4.4991322e-07
4.3907379e-07
4.2862136e-07
4.1853766e-07
4.0880579e-07
3.9940983e-07
3.9033356e-07
3.8156343e-07
3.7308525e-07
3.6488684e-07
3.5695567e-07
3.4928059e-07
3.4185008e-07
3.3465402e-07
3.2768291e-07
3.2092797e-07
3.1437871e-07
3.0802836e-07
3.0186847e-07
0.00092330846
0.00056176342
0.0002667699
0.00014836697
9.313469e-05
6.3547142e-05
4.6005311e-05
3.4797683e-05
2.7219077e-05
2.1862364e-05
1.7939537e-05
1.4982354e-05
1.269876e-05
1.0899091e-05
9.4559114e-06
8.2810672e-06
7.3120228e-06
6.5034314e-06
5.8217674e-06
5.241817e-06
4.744324e-06
4.3143791e-06
3.9402939e-06
3.6128013e-06
3.3244779e-06
3.0693212e-06
2.8424354e-06
2.639795e-06
2.4580665e-06
2.2944696e-06
2.146671e-06
2.012701e-06
1.8908872e-06
1.7798028e-06
1.6782243e-06
1.5850975e-06
1.4995102e-06
1.4206702e-06
1.3478869e-06
1.2805557e-06
1.218145e-06
1.1601869e-06
1.1062682e-06
1.0560221e-06
1.0091225e-06
9.6527845e-07
9.2423022e-07
8.857457e-07
8.4961499e-07
8.1565068e-07
7.8368278e-07
7.5355771e-07
7.2513659e-07
6.9829325e-07
6.7291317e-07
6.48892e-07
6.2613433e-07
6.0455307e-07
5.8406819e-07
5.6460731e-07
5.4610312e-07
5.2849386e-07
5.1172254e-07
4.9573673e-07
4.8048873e-07
4.6593337e-07
4.5202938e-07
4.3873854e-07
4.2602567e-07
4.1385711e-07
4.0220274e-07
3.9103347e-07
3.8032327e-07
3.7004675e-07
3.6018159e-07
3.5070579e-07
3.4159874e-07
3.3284181e-07
3.2441775e-07
3.1630898e-07
3.0850028e-07
3.0097776e-07
2.9372689e-07
2.8673515e-07
2.7998934e-07
2.7347966e-07
2.6719359e-07
2.6112233e-07
2.5525574e-07
2.4958399e-07
2.4409933e-07
2.3879429e-07
2.3365975e-07
2.2868962e-07
2.238751e-07
2.1921214e-07
2.1469328e-07
2.1031177e-07
2.0606389e-07
2.019432e-07
)


416
(
0.00021878562
0.0002187923
0.0002187812
0.0002187494
0.00021871621
0.014780943
0.013112921
0.00021877527
0.0096093523
0.00021876521
0.00021874772
0.024052961
0.0016256201
0.00024734692
0.0034572927
0
0.00081715855
0.00071245981
0
0.0004484997
0.00034205724
0
0.00020677995
0.00015234035
0
0.00011383044
8.2890901e-05
0
7.1130114e-05
5.1531997e-05
0
4.8417269e-05
3.4983482e-05
0
3.5002894e-05
2.5251562e-05
0
2.645211e-05
1.9064034e-05
0
2.0678714e-05
1.4893232e-05
0
1.6602142e-05
1.1951599e-05
0
1.3618975e-05
9.8007125e-06
0
1.1371363e-05
8.1811417e-06
0
9.6364284e-06
6.9315642e-06
0
8.2695883e-06
5.9474549e-06
0
7.1737791e-06
5.1587073e-06
0
6.2819002e-06
4.5168917e-06
0
5.5463771e-06
3.9876917e-06
0
4.9327261e-06
3.5462452e-06
0
4.4154623e-06
3.1741855e-06
0
3.9754247e-06
2.8577081e-06
0
3.5979835e-06
2.5862756e-06
0
3.2718136e-06
2.3517331e-06
0
2.9880386e-06
2.1476902e-06
0
2.7396215e-06
1.9690815e-06
0
2.5209265e-06
1.811851e-06
0
2.3273968e-06
1.6727197e-06
0
2.1553163e-06
1.5490136e-06
0
2.0016298e-06
1.4385348e-06
0
1.8638074e-06
1.3394633e-06
0
1.7397392e-06
1.2502815e-06
0
1.627655e-06
1.1697162e-06
0
1.52606e-06
1.096692e-06
0
1.4336854e-06
1.0302969e-06
0
1.3494487e-06
9.6975197e-07
0
1.2724217e-06
9.1439043e-07
0
1.2018045e-06
8.6363636e-07
0
1.1369054e-06
8.1699284e-07
0
1.0771238e-06
7.7402787e-07
0
1.021935e-06
7.3436425e-07
0
9.7088101e-07
6.9767249e-07
0
9.2355854e-07
6.6366302e-07
0
8.796127e-07
6.3208076e-07
0
8.3873006e-07
6.0270009e-07
0
8.0063221e-07
5.753209e-07
0
7.6507202e-07
5.4976576e-07
0
7.3182861e-07
5.2587585e-07
0
7.0070592e-07
5.0350992e-07
0
6.715267e-07
4.8254078e-07
0
6.4413245e-07
4.6285478e-07
0
6.1838077e-07
4.4434906e-07
0
5.9414309e-07
4.2693127e-07
0
5.7130271e-07
4.1051786e-07
0
5.4975426e-07
3.9503289e-07
0
5.2940216e-07
3.8040784e-07
0
5.1015965e-07
3.6658014e-07
0
4.9194756e-07
3.5349295e-07
0
4.7469317e-07
3.4109401e-07
0
4.5833068e-07
3.2933613e-07
0
4.4280003e-07
3.1817583e-07
0
4.2804542e-07
3.0757337e-07
0
4.140161e-07
2.9749221e-07
0
4.0066556e-07
2.8789852e-07
0
3.8795015e-07
2.7876152e-07
0
3.758308e-07
2.7005263e-07
0
3.6427014e-07
2.6174563e-07
0
3.5323501e-07
2.5381598e-07
0
3.4269378e-07
2.4624137e-07
0
3.3261786e-07
2.3900031e-07
0
3.2297935e-07
2.3207487e-07
0
3.1375355e-07
2.2544544e-07
0
3.049178e-07
2.1909644e-07
0
2.9644977e-07
2.1301165e-07
0
2.8833018e-07
2.0717686e-07
0
2.8053906e-07
2.015792e-07
0
2.7306018e-07
1.9620482e-07
0
2.6587596e-07
1.910422e-07
0
2.5897149e-07
1.860812e-07
0
2.5233225e-07
1.8131066e-07
0
2.459457e-07
1.7672144e-07
0
2.3979833e-07
1.7230407e-07
0
2.3387862e-07
1.6805044e-07
0
2.2817542e-07
1.6395241e-07
0
2.2267824e-07
1.600029e-07
0
2.1737726e-07
1.5619343e-07
0
2.122637e-07
1.5251895e-07
0
2.0732807e-07
1.4897267e-07
0
2.025626e-07
1.4554784e-07
0
1.9795985e-07
1.4224107e-07
0
1.9351204e-07
1.3904493e-07
0
1.892124e-07
1.3595534e-07
0
1.850545e-07
1.3296758e-07
0
1.8103225e-07
1.3007758e-07
0
1.7713923e-07
1.2728061e-07
0
1.7337104e-07
1.2457296e-07
0
1.6972192e-07
1.2195088e-07
0
1.6618647e-07
1.1941034e-07
0
1.6276062e-07
1.1694895e-07
0
1.5943931e-07
1.1456199e-07
0
1.5621881e-07
1.122481e-07
0
1.5309505e-07
1.1000322e-07
0
0.0006995961
0.0004258455
0.00020223516
0.00011247613
7.0604988e-05
4.8174828e-05
3.4876445e-05
2.6379988e-05
2.0634677e-05
1.6573774e-05
1.3599894e-05
1.1358065e-05
9.6268808e-06
8.2625586e-06
7.1684898e-06
6.2778449e-06
5.5432163e-06
4.9302261e-06
4.4134593e-06
3.9738012e-06
3.5966537e-06
3.270714e-06
2.9871216e-06
2.7388507e-06
2.5202738e-06
2.3268406e-06
2.1548392e-06
2.0012184e-06
1.8634507e-06
1.7394284e-06
1.627383e-06
1.5258207e-06
1.4334743e-06
1.3492618e-06
1.2722554e-06
1.201656e-06
1.1367727e-06
1.0770046e-06
1.0218277e-06
9.7078409e-07
9.2347093e-07
8.7953337e-07
8.3865767e-07
8.0056624e-07
7.6501164e-07
7.3177363e-07
7.0065551e-07
6.7148018e-07
6.4408983e-07
6.1834169e-07
5.9410672e-07
5.7126922e-07
5.4972314e-07
5.2937341e-07
5.1013293e-07
4.9192236e-07
4.7466983e-07
4.5830937e-07
4.4277991e-07
4.2802665e-07
4.1399851e-07
4.0064898e-07
3.8793475e-07
3.7581592e-07
3.6425644e-07
3.5322215e-07
3.4268177e-07
3.3260636e-07
3.2296819e-07
3.1374341e-07
3.0490833e-07
2.9644098e-07
2.8832138e-07
2.8053162e-07
2.7305274e-07
2.6586851e-07
2.5896507e-07
2.5232582e-07
2.4593962e-07
2.3979258e-07
2.3387287e-07
2.2817001e-07
2.226735e-07
2.1737219e-07
2.1225896e-07
2.0732334e-07
2.0255821e-07
1.9795546e-07
1.9350832e-07
1.8920901e-07
1.8505111e-07
1.8102887e-07
1.7713652e-07
1.7336833e-07
1.6971921e-07
1.661841e-07
1.6275792e-07
1.5943728e-07
1.562161e-07
1.5309235e-07
)


316
(
0.00021875928
0.0002187812
0.0002187923
0.0002187812
0.00021875928
0.014779375
0.013120515
0.00021874649
0.0096028916
0.00021874772
0.016879832
0.016552389
0.0010938707
0.00048715279
0.024692751
0.0045697756
0.00020690451
0
0.00020690451
0.00011357367
0
0.00011357367
5.2363596e-05
0
5.2363596e-05
2.8825741e-05
0
2.8825741e-05
1.8012579e-05
0
1.8012579e-05
1.2260913e-05
0
1.2260913e-05
8.8639346e-06
0
8.8639346e-06
6.698583e-06
0
6.698583e-06
5.2365611e-06
0
5.2365611e-06
4.2042332e-06
0
4.2042332e-06
3.4487927e-06
0
3.4487927e-06
2.8796202e-06
0
2.8796202e-06
2.4402751e-06
0
2.4402751e-06
2.0941442e-06
0
2.0941442e-06
1.8166476e-06
0
1.8166476e-06
1.5907933e-06
0
1.5907933e-06
1.4045335e-06
0
1.4045335e-06
1.2491359e-06
0
1.2491359e-06
1.118147e-06
0
1.118147e-06
1.0067144e-06
0
1.0067144e-06
9.1113322e-07
0
9.1113322e-07
8.2853583e-07
0
8.2853583e-07
7.5667419e-07
0
7.5667419e-07
6.9376644e-07
0
6.9376644e-07
6.3838527e-07
0
6.3838527e-07
5.8937695e-07
0
5.8937695e-07
5.4580026e-07
0
5.4580026e-07
5.0688164e-07
0
5.0688164e-07
4.719801e-07
0
4.719801e-07
4.4056183e-07
0
4.4056183e-07
4.1217818e-07
0
4.1217818e-07
3.8645094e-07
0
3.8645094e-07
3.6305856e-07
0
3.6305856e-07
3.4172695e-07
0
3.4172695e-07
3.2222108e-07
0
3.2222108e-07
3.0433815e-07
0
3.0433815e-07
2.879036e-07
0
2.879036e-07
2.7276469e-07
0
2.7276469e-07
2.5878916e-07
0
2.5878916e-07
2.4586029e-07
0
2.4586029e-07
2.3387659e-07
0
2.3387659e-07
2.2274826e-07
0
2.2274826e-07
2.1239529e-07
0
2.1239529e-07
2.0274748e-07
0
2.0274748e-07
1.9374258e-07
0
1.9374258e-07
1.8532411e-07
0
1.8532411e-07
1.7744267e-07
0
1.7744267e-07
1.7005361e-07
0
1.7005361e-07
1.6311667e-07
0
1.6311667e-07
1.5659515e-07
0
1.5659515e-07
1.5045742e-07
0
1.5045742e-07
1.4467354e-07
0
1.4467354e-07
1.3921644e-07
0
1.3921644e-07
1.3406296e-07
0
1.3406296e-07
1.2918991e-07
0
1.2918991e-07
1.2457786e-07
0
1.2457786e-07
1.202087e-07
0
1.202087e-07
1.1606534e-07
0
1.1606534e-07
1.1213224e-07
0
1.1213224e-07
1.0839584e-07
0
1.0839584e-07
1.0484314e-07
0
1.0484314e-07
1.0146212e-07
0
1.0146212e-07
9.824229e-08
0
9.824229e-08
9.5173001e-08
0
9.5173001e-08
9.2245962e-08
0
9.2245962e-08
8.9451193e-08
0
8.9451193e-08
8.6781761e-08
0
8.6781761e-08
8.4230391e-08
0
8.4230391e-08
8.1789303e-08
0
8.1789303e-08
7.9453084e-08
0
7.9453084e-08
7.7215307e-08
0
7.7215307e-08
7.5071575e-08
0
7.5071575e-08
7.3014782e-08
0
7.3014782e-08
7.1041885e-08
0
7.1041885e-08
6.9148147e-08
0
6.9148147e-08
6.7328833e-08
0
6.7328833e-08
6.558056e-08
0
6.558056e-08
6.3899267e-08
0
6.3899267e-08
6.2282249e-08
0
6.2282249e-08
6.0725108e-08
0
6.0725108e-08
5.9226153e-08
0
5.9226153e-08
5.7782339e-08
0
5.7782339e-08
5.6389944e-08
0
5.6389944e-08
5.5047617e-08
0
5.5047617e-08
5.3752311e-08
0
5.3752311e-08
5.2502674e-08
0
5.2502674e-08
5.1295662e-08
0
5.1295662e-08
5.0130259e-08
0
5.0130259e-08
4.9004097e-08
0
4.9004097e-08
4.7914809e-08
0
4.7914809e-08
4.6862394e-08
0
4.6862394e-08
4.5843808e-08
0
4.5843808e-08
4.4857698e-08
0
4.4857698e-08
4.3903725e-08
0
4.3903725e-08
4.2979184e-08
0
4.2979184e-08
4.2083735e-08
0
4.2083735e-08
4.1216702e-08
0
4.1216702e-08
4.0375717e-08
0
4.0375717e-08
3.9560104e-08
0
3.9560104e-08
3.8768848e-08
0
3.8768848e-08
)


419
(
0.00021871621
0.0002187494
0.0002187812
0.0002187923
0.00021878562
0.014774794
0.013125859
0.00021870587
0.009596796
0.016885755
0.00021874772
0.0017972464
3.0181617e-05
0.0083307213
0.00055484503
0.00072607422
0.020846136
0.0056940989
0
0
0.00071245981
0.00081715855
0
0.00034205724
0.0004484997
0
0.00015234035
0.00020677995
0
8.2890901e-05
0.00011383044
0
5.1531997e-05
7.1130114e-05
0
3.4983482e-05
4.8417269e-05
0
2.5251562e-05
3.5002894e-05
0
1.9064034e-05
2.645211e-05
0
1.4893232e-05
2.0678714e-05
0
1.1951599e-05
1.6602142e-05
0
9.8007125e-06
1.3618975e-05
0
8.1811417e-06
1.1371363e-05
0
6.9315642e-06
9.6364284e-06
0
5.9474549e-06
8.2695883e-06
0
5.1587073e-06
7.1737791e-06
0
4.5168917e-06
6.2819002e-06
0
3.9876917e-06
5.5463771e-06
0
3.5462452e-06
4.9327261e-06
0
3.1741855e-06
4.4154623e-06
0
2.8577081e-06
3.9754247e-06
0
2.5862756e-06
3.5979835e-06
0
2.3517331e-06
3.2718136e-06
0
2.1476902e-06
2.9880386e-06
0
1.9690815e-06
2.7396215e-06
0
1.811851e-06
2.5209265e-06
0
1.6727197e-06
2.3273968e-06
0
1.5490136e-06
2.1553163e-06
0
1.4385348e-06
2.0016298e-06
0
1.3394633e-06
1.8638074e-06
0
1.2502815e-06
1.7397392e-06
0
1.1697162e-06
1.627655e-06
0
1.096692e-06
1.52606e-06
0
1.0302969e-06
1.4336852e-06
0
9.6975197e-07
1.3494487e-06
0
9.1439043e-07
1.2724217e-06
0
8.6363636e-07
1.2018045e-06
0
8.1699284e-07
1.1369054e-06
0
7.7402787e-07
1.0771238e-06
0
7.3436425e-07
1.021935e-06
0
6.9767249e-07
9.7088101e-07
0
6.6366302e-07
9.2355854e-07
0
6.3208076e-07
8.796127e-07
0
6.0270009e-07
8.3873006e-07
0
5.753209e-07
8.0063221e-07
0
5.4976576e-07
7.6507169e-07
0
5.2587585e-07
7.3182861e-07
0
5.0350992e-07
7.0070575e-07
0
4.8254078e-07
6.715267e-07
0
4.6285478e-07
6.4413245e-07
0
4.4434906e-07
6.1838077e-07
0
4.2693127e-07
5.9414309e-07
0
4.1051786e-07
5.7130255e-07
0
3.9503289e-07
5.4975426e-07
0
3.8040784e-07
5.2940216e-07
0
3.6658014e-07
5.1015965e-07
0
3.5349295e-07
4.9194756e-07
0
3.4109401e-07
4.7469317e-07
0
3.2933613e-07
4.5833068e-07
0
3.1817583e-07
4.4280003e-07
0
3.0757337e-07
4.2804542e-07
0
2.9749221e-07
4.140161e-07
0
2.8789852e-07
4.0066556e-07
0
2.7876152e-07
3.8795015e-07
0
2.7005263e-07
3.7583046e-07
0
2.6174563e-07
3.6427014e-07
0
2.5381598e-07
3.5323501e-07
0
2.4624137e-07
3.4269378e-07
0
2.3900031e-07
3.3261786e-07
0
2.3207487e-07
3.2297935e-07
0
2.2544544e-07
3.1375355e-07
0
2.1909644e-07
3.049178e-07
0
2.1301165e-07
2.9645011e-07
0
2.0717686e-07
2.8833018e-07
0
2.015792e-07
2.8053906e-07
0
1.9620482e-07
2.7305985e-07
0
1.910422e-07
2.6587596e-07
0
1.860812e-07
2.5897183e-07
0
1.8131066e-07
2.5233259e-07
0
1.7672144e-07
2.459457e-07
0
1.7230407e-07
2.3979833e-07
0
1.6805044e-07
2.3387862e-07
0
1.6395241e-07
2.2817542e-07
0
1.600029e-07
2.2267824e-07
0
1.5619343e-07
2.1737726e-07
0
1.5251895e-07
2.122637e-07
0
1.4897267e-07
2.0732807e-07
0
1.4554784e-07
2.025626e-07
0
1.4224107e-07
1.9796019e-07
0
1.3904493e-07
1.935117e-07
0
1.3595534e-07
1.892124e-07
0
1.3296758e-07
1.850545e-07
0
1.3007758e-07
1.8103225e-07
0
1.2728061e-07
1.771399e-07
0
1.2457296e-07
1.7337104e-07
0
1.2195088e-07
1.6972192e-07
0
1.1941034e-07
1.6618647e-07
0
1.1694895e-07
1.6276062e-07
0
1.1456199e-07
1.5943931e-07
0
1.122481e-07
1.5621881e-07
0
1.1000322e-07
1.5309505e-07
0.0006995961
0.0004258455
0.00020223516
0.00011247613
7.0604988e-05
4.8174828e-05
3.4876445e-05
2.6379988e-05
2.0634677e-05
1.6573774e-05
1.3599894e-05
1.1358065e-05
9.6268808e-06
8.2625587e-06
7.1684898e-06
6.2778449e-06
5.5432163e-06
4.9302261e-06
4.4134593e-06
3.9738012e-06
3.5966537e-06
3.270714e-06
2.9871216e-06
2.7388507e-06
2.5202738e-06
2.3268406e-06
2.1548392e-06
2.0012184e-06
1.8634507e-06
1.7394284e-06
1.627383e-06
1.5258207e-06
1.4334743e-06
1.3492618e-06
1.2722554e-06
1.201656e-06
1.1367727e-06
1.0770046e-06
1.0218277e-06
9.7078409e-07
9.2347093e-07
8.7953337e-07
8.3865784e-07
8.0056624e-07
7.6501164e-07
7.3177363e-07
7.0065551e-07
6.7148052e-07
6.4409e-07
6.1834169e-07
5.9410672e-07
5.7126922e-07
5.4972314e-07
5.2937341e-07
5.1013293e-07
4.9192236e-07
4.7466983e-07
4.5830937e-07
4.4277991e-07
4.2802665e-07
4.1399851e-07
4.0064898e-07
3.8793475e-07
3.7581625e-07
3.6425644e-07
3.5322215e-07
3.4268193e-07
3.3260602e-07
3.2296819e-07
3.1374374e-07
3.0490833e-07
2.9644098e-07
2.8832138e-07
2.8053094e-07
2.7305207e-07
2.6586851e-07
2.5896439e-07
2.5232582e-07
2.4593962e-07
2.3979258e-07
2.3387287e-07
2.2817001e-07
2.2267283e-07
2.1737219e-07
2.1225896e-07
2.0732334e-07
2.0255821e-07
1.9795546e-07
1.9350832e-07
1.8920868e-07
1.8505111e-07
1.8102887e-07
1.7713652e-07
1.7336833e-07
1.6971888e-07
1.661841e-07
1.6275792e-07
1.594366e-07
1.562161e-07
1.5309235e-07
)


519
(
0.00021868001
0.00021871621
0.00021875928
0.00021878562
0.0002187923
0.014769436
0.013127332
0.0095937004
0.00021870587
0.016891138
0.00021874649
0.0017974002
3.0181101e-05
0.0032096222
0.00022126066
0.00087219856
0.018645426
0.0064109249
0
0
0.001220977
0.0019562323
0
0.00061506828
0.00093871982
0
0.00027726307
0.00041805551
0
0.000151474
0.0002274694
0
9.4336053e-05
0.00014141397
0
6.410098e-05
9.6001518e-05
0
4.629393e-05
6.9295204e-05
0
3.4962211e-05
5.2315415e-05
0
2.73195e-05
4.086992e-05
0
2.192704e-05
3.2797507e-05
0
1.798303e-05
2.6895055e-05
0
1.5012662e-05
2.2450639e-05
0
1.2720517e-05
1.9021555e-05
0
1.0915109e-05
1.6320969e-05
0
9.4679629e-06
1.4156492e-05
0
8.2903066e-06
1.2395226e-05
0
7.3192243e-06
1.0942998e-05
0
6.5091267e-06
9.7315834e-06
0
5.8263304e-06
8.7105797e-06
0
5.2455154e-06
7.8421042e-06
0
4.7473533e-06
7.0972409e-06
0
4.3168839e-06
6.4536112e-06
0
3.9423829e-06
5.8936776e-06
0
3.6145571e-06
5.403541e-06
0
3.3259646e-06
4.9720702e-06
0
3.0705884e-06
4.5902667e-06
0
2.8435221e-06
4.2507931e-06
0
2.6407322e-06
3.9476182e-06
0
2.4588791e-06
3.6757467e-06
0
2.2951777e-06
3.4310147e-06
0
2.1472907e-06
3.2099274e-06
0
2.0132456e-06
3.0095351e-06
0
1.8913681e-06
2.827334e-06
0
1.7802287e-06
2.6611875e-06
0
1.678603e-06
2.5092637e-06
0
1.5854351e-06
2.369985e-06
0
1.4998124e-06
2.2419861e-06
0
1.4209416e-06
2.1240818e-06
0
1.3481311e-06
2.0152374e-06
0
1.2807759e-06
1.9145484e-06
0
1.2183444e-06
1.8212201e-06
0
1.1603679e-06
1.7345524e-06
0
1.1064331e-06
1.6539257e-06
0
1.0561721e-06
1.5787921e-06
0
1.0092593e-06
1.5086638e-06
0
9.6540362e-07
1.4431055e-06
0
9.2434523e-07
1.3817285e-06
0
8.8585108e-07
1.3241855e-06
0
8.4971208e-07
1.2701629e-06
0
8.1574016e-07
1.2193798e-06
0
7.8376516e-07
1.1715822e-06
0
7.5363399e-07
1.1265405e-06
0
7.2520729e-07
1.0840469e-06
0
6.9835887e-07
1.0439129e-06
0
6.7297406e-07
1.0059669e-06
0
6.4894866e-07
9.7005271e-07
0
6.2618694e-07
9.3602785e-07
0
6.0460212e-07
9.0376209e-07
0
5.841142e-07
8.7313617e-07
0
5.6465011e-07
8.4404068e-07
0
5.4614303e-07
8.1637597e-07
0
5.2853107e-07
7.9004903e-07
0
5.1175739e-07
7.6497527e-07
0
4.9576988e-07
7.4107656e-07
0
4.8051968e-07
7.182805e-07
0
4.6596263e-07
6.9652011e-07
0
4.5205695e-07
6.7573382e-07
0
4.3876459e-07
6.5586412e-07
0
4.2605003e-07
6.3685841e-07
0
4.1388011e-07
6.1866662e-07
0
4.0222439e-07
6.0124308e-07
0
3.9105411e-07
5.8454585e-07
0
3.8034255e-07
5.6853399e-07
0
3.7006569e-07
5.5317165e-07
0
3.6019918e-07
5.384233e-07
0
3.5072237e-07
5.2425714e-07
0
3.416143e-07
5.1064273e-07
0
3.3285669e-07
4.9755199e-07
0
3.2443128e-07
4.8495785e-07
0
3.1632218e-07
4.7283631e-07
0
3.0851347e-07
4.6116333e-07
0
3.0099028e-07
4.4991728e-07
0
2.9373839e-07
4.3907717e-07
0
2.8674597e-07
4.2862474e-07
0
2.8000051e-07
4.1854172e-07
0
2.7348913e-07
4.0880951e-07
0
2.6720306e-07
3.9941287e-07
0
2.6113146e-07
3.9033626e-07
0
2.5526419e-07
3.8156614e-07
0
2.4959245e-07
3.730883e-07
0
2.4410778e-07
3.6488921e-07
0
2.3880173e-07
3.5695804e-07
0
2.3366719e-07
3.4928262e-07
0
2.2869571e-07
3.4185245e-07
0
2.2388221e-07
3.3465638e-07
0
2.192189e-07
3.2768494e-07
0
2.1469903e-07
3.2092932e-07
0
2.1031786e-07
3.1438074e-07
0
2.0606964e-07
3.0803039e-07
0
2.0194929e-07
3.018705e-07
0.00092330846
0.00056176342
0.0002667699
0.00014836697
9.313469e-05
6.3547142e-05
4.6005311e-05
3.4797683e-05
2.7219077e-05
2.1862364e-05
1.7939537e-05
1.4982354e-05
1.269876e-05
1.0899091e-05
9.4559114e-06
8.2810672e-06
7.3120228e-06
6.5034314e-06
5.8217674e-06
5.241817e-06
4.744324e-06
4.3143791e-06
3.9402939e-06
3.6128013e-06
3.3244779e-06
3.0693212e-06
2.8424354e-06
2.639795e-06
2.4580665e-06
2.2944696e-06
2.146671e-06
2.012701e-06
1.8908872e-06
1.7798028e-06
1.6782243e-06
1.5850975e-06
1.4995102e-06
1.4206702e-06
1.3478869e-06
1.2805557e-06
1.218145e-06
1.1601869e-06
1.1062682e-06
1.0560221e-06
1.0091225e-06
9.6527845e-07
9.2423022e-07
8.857457e-07
8.4961499e-07
8.1565068e-07
7.8368278e-07
7.5355771e-07
7.2513659e-07
6.9829325e-07
6.7291317e-07
6.48892e-07
6.2613433e-07
6.0455307e-07
5.8406819e-07
5.6460731e-07
5.4610312e-07
5.2849386e-07
5.1172254e-07
4.9573673e-07
4.8048873e-07
4.6593337e-07
4.5202938e-07
4.3873854e-07
4.2602567e-07
4.1385711e-07
4.0220274e-07
3.9103347e-07
3.8032327e-07
3.7004675e-07
3.6018159e-07
3.5070579e-07
3.4159874e-07
3.3284181e-07
3.2441775e-07
3.1630898e-07
3.0850028e-07
3.0097776e-07
2.9372689e-07
2.8673515e-07
2.7998934e-07
2.7347966e-07
2.6719359e-07
2.6112233e-07
2.5525574e-07
2.4958399e-07
2.4409933e-07
2.3879429e-07
2.3365975e-07
2.2868962e-07
2.238751e-07
2.1921214e-07
2.1469328e-07
2.1031177e-07
2.0606389e-07
2.019432e-07
0.0018248201
0.00091938023
0.00041444625
0.00022642
0.00014101147
9.5816743e-05
6.9199151e-05
5.2260745e-05
4.0836587e-05
3.2776055e-05
2.6880637e-05
2.2440595e-05
1.9014348e-05
1.6315664e-05
1.4152501e-05
1.2392167e-05
1.0940614e-05
9.7296984e-06
8.7090696e-06
7.8408803e-06
7.0962385e-06
6.4527823e-06
5.8929865e-06
5.4029601e-06
4.9715783e-06
4.5898476e-06
4.2504338e-06
3.947308e-06
3.675478e-06
3.4307805e-06
3.2097224e-06
3.0093549e-06
2.8271749e-06
2.6610464e-06
2.5091386e-06
2.3698736e-06
2.2418866e-06
2.1239918e-06
2.0151567e-06
1.9144755e-06
1.8211541e-06
1.7344923e-06
1.6538715e-06
1.5787425e-06
1.5086184e-06
1.4430639e-06
1.3816906e-06
1.3241505e-06
1.270131e-06
1.2193503e-06
1.171555e-06
1.1265154e-06
1.0840237e-06
1.0438912e-06
1.0059466e-06
9.7003394e-07
9.3601043e-07
9.0374585e-07
8.7312095e-07
8.4402681e-07
8.1636278e-07
7.9003668e-07
7.6496377e-07
7.4106574e-07
7.1827018e-07
6.965103e-07
6.7572468e-07
6.5585566e-07
6.3685029e-07
6.1865884e-07
6.0123564e-07
5.8453909e-07
5.6852757e-07
5.5316556e-07
5.3841754e-07
5.2425172e-07
5.1063731e-07
4.9754657e-07
4.8495312e-07
4.7283157e-07
4.6115894e-07
4.4991322e-07
4.3907345e-07
4.2862136e-07
4.1853766e-07
4.0880579e-07
3.9940983e-07
3.9033356e-07
3.8156343e-07
3.7308593e-07
3.6488684e-07
3.5695567e-07
3.4928059e-07
3.4185008e-07
3.3465402e-07
3.2768291e-07
3.2092797e-07
3.1437871e-07
3.0802836e-07
3.0186847e-07
)


418
(
0.00021863649
0.00021865963
0.00021863644
0.00021856867
0.0002184894
0.014786678
0.013104357
0.00021858744
0.0095995075
0.00021853124
0.016835263
0.00021847783
0.039241953
0.0022848452
2.2303167e-05
0.028898914
0.0021117708
0
3.0025829e-05
2.1047624e-05
0
2.5554536e-05
7.6073189e-05
5.2906041e-05
0
6.4528923e-05
9.4970998e-05
6.5304527e-05
0
8.0221795e-05
9.3777425e-05
6.3792851e-05
0
7.8952873e-05
8.3622167e-05
5.6392253e-05
0
7.0252781e-05
7.1390851e-05
4.7828141e-05
0
5.9899855e-05
6.0003639e-05
4.0003367e-05
0
5.0307044e-05
5.0322814e-05
3.3427538e-05
0
4.2171243e-05
4.2380483e-05
2.807478e-05
0
3.5505393e-05
3.5942658e-05
2.3760319e-05
0
3.0106526e-05
3.0729766e-05
2.0281331e-05
0
2.5737059e-05
2.649054e-05
1.7461141e-05
0
2.2184849e-05
2.3019478e-05
1.5157703e-05
0
1.9276928e-05
2.0154802e-05
1.3260411e-05
0
1.687736e-05
1.7771043e-05
1.1684138e-05
0
1.488083e-05
1.5771257e-05
1.0363486e-05
0
1.3206022e-05
1.4080396e-05
9.2480457e-06
0
1.1790011e-05
1.2640065e-05
8.2987314e-06
0
1.0583855e-05
1.1404532e-05
7.485016e-06
0
9.5492299e-06
1.0337712e-05
6.7828685e-06
0
8.6559047e-06
9.4109163e-06
6.1732194e-06
0
7.8798459e-06
8.6011602e-06
5.6408152e-06
0
7.2018006e-06
7.8898897e-06
5.1733596e-06
0
6.6062283e-06
7.2620184e-06
4.7608661e-06
0
6.0804939e-06
6.7051933e-06
4.3951658e-06
0
5.6142517e-06
6.2092317e-06
4.0695312e-06
0
5.1989744e-06
5.7656869e-06
3.778386e-06
0
4.8275885e-06
5.3675098e-06
3.5170796e-06
0
4.4941909e-06
5.0087837e-06
3.281711e-06
0
4.1938269e-06
4.6845157e-06
3.06899e-06
0
3.9223158e-06
4.3904705e-06
2.8761273e-06
0
3.6761109e-06
4.1230382e-06
2.700746e-06
0
3.4521896e-06
3.8791276e-06
2.540812e-06
0
3.2479633e-06
3.6560798e-06
2.394576e-06
0
3.0612057e-06
3.4515986e-06
2.260528e-06
0
2.8899942e-06
3.263693e-06
2.1373589e-06
0
2.7326615e-06
3.0906301e-06
2.0239298e-06
0
2.5877567e-06
2.9308962e-06
1.9192461e-06
0
2.4540123e-06
2.7831647e-06
1.8224361e-06
0
2.3303175e-06
2.646269e-06
1.7327336e-06
0
2.2156956e-06
2.5191801e-06
1.649463e-06
0
2.109285e-06
2.4009879e-06
1.5720267e-06
0
2.0103235e-06
2.2908848e-06
1.4998944e-06
0
1.9181349e-06
2.1881523e-06
1.4325946e-06
0
1.8321178e-06
2.0921498e-06
1.3697069e-06
0
1.7517357e-06
2.0023043e-06
1.3108553e-06
0
1.6765089e-06
1.9181025e-06
1.255703e-06
0
1.6060074e-06
1.8390832e-06
1.2039475e-06
0
1.5398452e-06
1.7648311e-06
1.1553163e-06
0
1.4776746e-06
1.6949716e-06
1.1095638e-06
0
1.4191819e-06
1.6291661e-06
1.0664678e-06
0
1.3640836e-06
1.5671079e-06
1.0258273e-06
0
1.3121228e-06
1.5085186e-06
9.8745974e-07
0
1.2630665e-06
1.4531451e-06
9.5119918e-07
0
1.2167029e-06
1.4007571e-06
9.1689455e-07
0
1.1728389e-06
1.3511443e-06
8.8440803e-07
0
1.1312986e-06
1.3041146e-06
8.5361369e-07
0
1.0919211e-06
1.2594922e-06
8.2439631e-07
0
1.0545592e-06
1.2171159e-06
7.9665027e-07
0
1.0190779e-06
1.1768378e-06
7.7027863e-07
0
9.8535354e-07
1.1385221e-06
7.451923e-07
0
9.5327216e-07
1.1020435e-06
7.2130926e-07
0
9.22729e-07
1.0672866e-06
6.9855392e-07
0
8.9362748e-07
1.0341452e-06
6.7685654e-07
0
8.6587847e-07
1.0025207e-06
6.5615265e-07
0
8.3939961e-07
9.7232215e-07
6.3638263e-07
0
8.1411469e-07
9.4346528e-07
6.1749125e-07
0
7.8995315e-07
9.1587191e-07
5.9942729e-07
0
7.6684951e-07
8.8946948e-07
5.8214321e-07
0
7.4474302e-07
8.6419051e-07
5.6559483e-07
0
7.2357722e-07
8.399723e-07
5.4974105e-07
0
7.0329958e-07
8.167564e-07
5.3454359e-07
0
6.8386115e-07
7.9448834e-07
5.1996678e-07
0
6.6521634e-07
7.731173e-07
5.0597732e-07
0
6.473226e-07
7.5259581e-07
4.9254413e-07
0
6.3014018e-07
7.328795e-07
4.7963812e-07
0
6.1363192e-07
7.1392684e-07
4.6723213e-07
0
5.9776307e-07
6.9569897e-07
4.5530068e-07
0
5.8250107e-07
6.7815944e-07
4.4381989e-07
0
5.6781541e-07
6.6127406e-07
4.327674e-07
0
5.5367746e-07
6.4501076e-07
4.2212219e-07
0
5.4006038e-07
6.2933938e-07
4.118645e-07
0
5.269389e-07
6.1423157e-07
4.0197578e-07
0
5.142893e-07
5.9966068e-07
3.9243856e-07
0
5.0208925e-07
5.8560157e-07
3.832364e-07
0
4.9031772e-07
5.720306e-07
3.743538e-07
0
4.7895488e-07
5.5892544e-07
3.6577616e-07
0
4.6798208e-07
5.4626505e-07
3.5748968e-07
0
4.5738167e-07
5.3402954e-07
3.4948133e-07
0
4.4713701e-07
5.2220013e-07
3.4173885e-07
0
4.3723238e-07
5.1075907e-07
3.3425059e-07
0
4.276529e-07
4.9968955e-07
3.2700554e-07
0
4.1838451e-07
4.8897569e-07
3.1999331e-07
0
4.0941392e-07
4.7860241e-07
3.1320403e-07
0
4.0072849e-07
4.6855546e-07
3.0662837e-07
0
3.9231628e-07
4.5882128e-07
3.0025745e-07
0
3.8416596e-07
4.4938705e-07
2.9408287e-07
0
3.7626679e-07
4.4024059e-07
2.8809666e-07
0
3.6860856e-07
4.3137031e-07
2.8229124e-07
0
3.6118156e-07
4.2276521e-07
2.766594e-07
0
3.5397662e-07
)


419
(
0.00021822722
0.00021833566
0.00021846211
0.00021855108
0.00021857561
0.014749404
0.013138079
0.00021818965
0.0095502995
0.016866525
0.0002183402
0.0017943102
3.0135604e-05
0.027577911
0.001645015
0.0016962168
0.0034009225
0.0098613814
0
0
5.7365437e-05
8.729182e-05
0
0.00014165248
0.00021682101
0
0.00017131791
0.00026422736
0
0.00016501027
0.00025615493
0
0.00014474461
0.00022578046
0
0.0001223078