/*--------------------------------*- C++ -*----------------------------------*\
| =========                 |                                                 |
| \\      /  F ield         | OpenFOAM: The Open Source CFD Toolbox           |
|  \\    /   O peration     | Version:  3.0.1                                 |
|   \\  /    A nd           | Web:      www.OpenFOAM.org                      |
|    \\/     M anipulation  |                                                 |
\*---------------------------------------------------------------------------*/
FoamFile
{
    version     2.0;
    format      ascii;
    class       labelListList;
    location    "constant";
    object      globalFaceFaces;
}
// * * * * * * * * * * * * * * * * * * * * * * * * * * * * * * * * * * * * * //


48
(

34
(
4
5
6
7
8
9
10
11
12
13
14
15
16
17
18
19
20
21
22
23
24
25
26
27
28
29
30
31
32
33
34
38
39
40
)


34
(
4
5
6
7
8
9
10
11
12
13
14
15
16
17
18
19
20
21
22
23
24
25
26
27
30
31
32
33
34
35
36
37
46
47
)


32
(
4
5
6
7
8
9
10
11
12
14
15
16
17
18
19
20
21
22
23
24
25
26
27
38
39
40
41
42
43
44
45
46
)


34
(
4
5
6
7
8
9
10
11
12
13
14
15
16
17
18
19
20
21
22
23
24
25
26
27
28
38
39
40
41
42
43
44
45
46
)


34
(
0
1
2
3
8
9
10
11
12
13
14
15
16
17
18
19
20
21
22
23
24
25
26
27
28
29
30
31
32
33
34
38
39
40
)


34
(
0
1
2
3
8
9
10
11
12
13
14
15
16
17
18
19
20
21
22
23
24
25
26
27
30
31
32
33
34
35
36
37
46
47
)


32
(
0
1
2
3
8
9
10
11
12
14
15
16
17
18
19
20
21
22
23
24
25
26
27
38
39
40
41
42
43
44
45
46
)


34
(
0
1
2
3
8
9
10
11
12
13
14
15
16
17
18
19
20
21
22
23
24
25
26
27
28
38
39
40
41
42
43
44
45
46
)


35
(
0
1
2
3
4
5
6
7
9
10
11
12
13
14
15
16
17
18
19
20
21
22
23
24
25
26
28
29
30
31
32
38
39
40
41
)


35
(
0
1
2
3
4
5
6
7
8
10
11
12
13
14
15
16
17
18
19
20
21
22
23
24
25
27
28
29
30
31
32
33
38
39
40
)


35
(
0
1
2
3
4
5
6
7
8
9
11
12
13
14
15
16
17
18
19
20
21
22
23
24
26
27
28
29
30
31
32
33
34
38
39
)


35
(
0
1
2
3
4
5
6
7
8
9
10
12
13
14
15
16
17
18
19
20
21
22
23
25
26
27
28
29
30
31
32
33
34
35
38
)


35
(
0
1
2
3
4
5
6
7
8
9
10
11
13
14
15
16
17
18
19
20
21
22
24
25
26
27
28
29
30
31
32
33
34
35
36
)


33
(
0
1
3
4
5
7
8
9
10
11
12
14
15
16
17
18
19
20
21
23
24
25
26
27
29
30
31
32
33
34
35
36
37
)


35
(
0
1
2
3
4
5
6
7
8
9
10
11
12
13
15
16
17
18
19
20
22
23
24
25
26
27
30
31
32
33
34
35
36
37
47
)


35
(
0
1
2
3
4
5
6
7
8
9
10
11
12
13
14
16
17
18
19
21
22
23
24
25
26
27
31
32
33
34
35
36
37
46
47
)


35
(
0
1
2
3
4
5
6
7
8
9
10
11
12
13
14
15
17
18
20
21
22
23
24
25
26
27
32
33
34
35
36
37
45
46
47
)


35
(
0
1
2
3
4
5
6
7
8
9
10
11
12
13
14
15
16
19
20
21
22
23
24
25
26
27
33
34
35
36
37
44
45
46
47
)


35
(
0
1
2
3
4
5
6
7
8
9
10
11
12
13
14
15
16
19
20
21
22
23
24
25
26
27
28
29
30
31
38
39
40
41
42
)


35
(
0
1
2
3
4
5
6
7
8
9
10
11
12
13
14
15
17
18
20
21
22
23
24
25
26
27
28
29
30
38
39
40
41
42
43
)


35
(
0
1
2
3
4
5
6
7
8
9
10
11
12
13
14
16
17
18
19
21
22
23
24
25
26
27
28
29
38
39
40
41
42
43
44
)


35
(
0
1
2
3
4
5
6
7
8
9
10
11
12
13
15
16
17
18
19
20
22
23
24
25
26
27
28
38
39
40
41
42
43
44
45
)


35
(
0
1
2
3
4
5
6
7
8
9
10
11
12
14
15
16
17
18
19
20
21
23
24
25
26
27
38
39
40
41
42
43
44
45
46
)


35
(
0
1
2
3
4
5
6
7
8
9
10
11
13
14
15
16
17
18
19
20
21
22
24
25
26
27
39
40
41
42
43
44
45
46
47
)


35
(
0
1
2
3
4
5
6
7
8
9
10
12
13
14
15
16
17
18
19
20
21
22
23
25
26
27
37
40
41
42
43
44
45
46
47
)


35
(
0
1
2
3
4
5
6
7
8
9
11
12
13
14
15
16
17
18
19
20
21
22
23
24
26
27
36
37
41
42
43
44
45
46
47
)


35
(
0
1
2
3
4
5
6
7
8
10
11
12
13
14
15
16
17
18
19
20
21
22
23
24
25
27
35
36
37
42
43
44
45
46
47
)


35
(
0
1
2
3
4
5
6
7
9
10
11
12
13
14
15
16
17
18
19
20
21
22
23
24
25
26
34
35
36
37
43
44
45
46
47
)


13
(
0
3
4
7
8
9
10
11
12
18
19
20
21
)


11
(
0
4
8
9
10
11
12
13
18
19
20
)


13
(
0
1
4
5
8
9
10
11
12
13
14
18
19
)


13
(
0
1
4
5
8
9
10
11
12
13
14
15
18
)


13
(
0
1
4
5
8
9
10
11
12
13
14
15
16
)


13
(
0
1
4
5
9
10
11
12
13
14
15
16
17
)


13
(
0
1
4
5
10
11
12
13
14
15
16
17
27
)


11
(
1
5
11
12
13
14
15
16
17
26
27
)


11
(
1
5
12
13
14
15
16
17
25
26
27
)


11
(
1
5
13
14
15
16
17
24
25
26
27
)


15
(
0
2
3
4
6
7
8
9
10
11
18
19
20
21
22
)


15
(
0
2
3
4
6
7
8
9
10
18
19
20
21
22
23
)


15
(
0
2
3
4
6
7
8
9
18
19
20
21
22
23
24
)


13
(
2
3
6
7
8
18
19
20
21
22
23
24
25
)


13
(
2
3
6
7
18
19
20
21
22
23
24
25
26
)


13
(
2
3
6
7
19
20
21
22
23
24
25
26
27
)


13
(
2
3
6
7
17
20
21
22
23
24
25
26
27
)


13
(
2
3
6
7
16
17
21
22
23
24
25
26
27
)


15
(
1
2
3
5
6
7
15
16
17
22
23
24
25
26
27
)


11
(
1
5
14
15
16
17
23
24
25
26
27
)

)


// ************************************************************************* //
