/*--------------------------------*- C++ -*----------------------------------*\
| =========                 |                                                 |
| \\      /  F ield         | OpenFOAM: The Open Source CFD Toolbox           |
|  \\    /   O peration     | Version:  4.0                                   |
|   \\  /    A nd           | Web:      www.OpenFOAM.org                      |
|    \\/     M anipulation  |                                                 |
\*---------------------------------------------------------------------------*/
FoamFile
{
    version     2.0;
    format      ascii;
    class       labelListList;
    location    "constant";
    object      globalFaceFaces;
}
// * * * * * * * * * * * * * * * * * * * * * * * * * * * * * * * * * * * * * //


1034
(

419
(
14
15
16
17
18
19
20
21
22
23
24
25
26
28
29
30
31
32
33
34
35
39
40
44
45
49
50
54
55
59
60
64
65
69
70
74
75
79
80
84
85
89
90
94
95
99
100
104
105
109
110
114
115
119
120
124
125
129
130
134
135
139
140
144
145
149
150
154
155
159
160
164
165
169
170
174
175
179
180
184
185
189
190
194
195
199
200
204
205
209
210
214
215
219
220
224
225
229
230
234
235
239
240
244
245
249
250
254
255
259
260
264
265
269
270
274
275
279
280
284
285
289
290
294
295
299
300
304
305
309
310
314
315
319
320
324
325
329
330
334
335
339
340
344
345
349
350
354
355
359
360
364
365
369
370
374
375
379
380
384
385
389
390
394
395
399
400
404
405
409
410
414
415
419
420
424
425
429
430
434
435
439
440
444
445
449
450
454
455
459
460
464
465
469
470
474
475
479
480
484
485
489
490
494
495
499
500
504
505
509
510
514
515
519
520
524
525
529
530
534
535
536
537
538
539
540
541
542
543
544
545
546
547
548
549
550
551
552
553
554
555
556
557
558
559
560
561
562
563
564
565
566
567
568
569
570
571
572
573
574
575
576
577
578
579
580
581
582
583
584
585
586
587
588
589
590
591
592
593
594
595
596
597
598
599
600
601
602
603
604
605
606
607
608
609
610
611
612
613
614
615
616
617
618
619
620
621
622
623
624
625
626
627
628
629
630
631
632
633
634
635
636
637
638
639
640
641
642
643
644
645
646
647
648
649
650
651
652
653
654
655
656
657
658
659
660
661
662
663
664
665
666
667
668
669
670
671
672
673
674
675
676
677
678
679
680
681
682
683
684
685
686
687
688
689
690
691
692
693
694
695
696
697
698
699
700
701
702
703
704
705
706
707
708
709
710
711
712
713
714
715
716
717
718
719
720
721
722
723
724
725
726
727
728
729
730
731
732
733
)


416
(
14
15
16
17
18
19
20
21
22
23
25
28
29
30
32
33
34
35
36
39
40
41
44
45
46
49
50
51
54
55
56
59
60
61
64
65
66
69
70
71
74
75
76
79
80
81
84
85
86
89
90
91
94
95
96
99
100
101
104
105
106
109
110
111
114
115
116
119
120
121
124
125
126
129
130
131
134
135
136
139
140
141
144
145
146
149
150
151
154
155
156
159
160
161
164
165
166
169
170
171
174
175
176
179
180
181
184
185
186
189
190
191
194
195
196
199
200
201
204
205
206
209
210
211
214
215
216
219
220
221
224
225
226
229
230
231
234
235
236
239
240
241
244
245
246
249
250
251
254
255
256
259
260
261
264
265
266
269
270
271
274
275
276
279
280
281
284
285
286
289
290
291
294
295
296
299
300
301
304
305
306
309
310
311
314
315
316
319
320
321
324
325
326
329
330
331
334
335
336
339
340
341
344
345
346
349
350
351
354
355
356
359
360
361
364
365
366
369
370
371
374
375
376
379
380
381
384
385
386
389
390
391
394
395
396
399
400
401
404
405
406
409
410
411
414
415
416
419
420
421
424
425
426
429
430
431
434
435
436
439
440
441
444
445
446
449
450
451
454
455
456
459
460
461
464
465
466
469
470
471
474
475
476
479
480
481
484
485
486
489
490
491
494
495
496
499
500
501
504
505
506
509
510
511
514
515
516
519
520
521
524
525
526
529
530
531
534
535
536
537
538
539
540
541
542
543
544
545
546
547
548
549
550
551
552
553
554
555
556
557
558
559
560
561
562
563
564
565
566
567
568
569
570
571
572
573
574
575
576
577
578
579
580
581
582
583
584
585
586
587
588
589
590
591
592
593
594
595
596
597
598
599
600
601
602
603
604
605
606
607
608
609
610
611
612
613
614
615
616
617
618
619
620
621
622
623
624
625
626
627
628
629
630
631
632
633
)


316
(
14
15
16
17
18
19
20
21
22
23
24
28
29
30
31
32
35
36
37
40
41
42
45
46
47
50
51
52
55
56
57
60
61
62
65
66
67
70
71
72
75
76
77
80
81
82
85
86
87
90
91
92
95
96
97
100
101
102
105
106
107
110
111
112
115
116
117
120
121
122
125
126
127
130
131
132
135
136
137
140
141
142
145
146
147
150
151
152
155
156
157
160
161
162
165
166
167
170
171
172
175
176
177
180
181
182
185
186
187
190
191
192
195
196
197
200
201
202
205
206
207
210
211
212
215
216
217
220
221
222
225
226
227
230
231
232
235
236
237
240
241
242
245
246
247
250
251
252
255
256
257
260
261
262
265
266
267
270
271
272
275
276
277
280
281
282
285
286
287
290
291
292
295
296
297
300
301
302
305
306
307
310
311
312
315
316
317
320
321
322
325
326
327
330
331
332
335
336
337
340
341
342
345
346
347
350
351
352
355
356
357
360
361
362
365
366
367
370
371
372
375
376
377
380
381
382
385
386
387
390
391
392
395
396
397
400
401
402
405
406
407
410
411
412
415
416
417
420
421
422
425
426
427
430
431
432
435
436
437
440
441
442
445
446
447
450
451
452
455
456
457
460
461
462
465
466
467
470
471
472
475
476
477
480
481
482
485
486
487
490
491
492
495
496
497
500
501
502
505
506
507
510
511
512
515
516
517
520
521
522
525
526
527
530
531
532
)


419
(
14
15
16
17
18
19
20
21
22
24
25
26
27
28
29
30
31
32
33
36
37
38
41
42
43
46
47
48
51
52
53
56
57
58
61
62
63
66
67
68
71
72
73
76
77
78
81
82
83
86
87
88
91
92
93
96
97
98
101
102
103
106
107
108
111
112
113
116
117
118
121
122
123
126
127
128
131
132
133
136
137
138
141
142
143
146
147
148
151
152
153
156
157
158
161
162
163
166
167
168
171
172
173
176
177
178
181
182
183
186
187
188
191
192
193
196
197
198
201
202
203
206
207
208
211
212
213
216
217
218
221
222
223
226
227
228
231
232
233
236
237
238
241
242
243
246
247
248
251
252
253
256
257
258
261
262
263
266
267
268
271
272
273
276
277
278
281
282
283
286
287
288
291
292
293
296
297
298
301
302
303
306
307
308
311
312
313
316
317
318
321
322
323
326
327
328
331
332
333
336
337
338
341
342
343
346
347
348
351
352
353
356
357
358
361
362
363
366
367
368
371
372
373
376
377
378
381
382
383
386
387
388
391
392
393
396
397
398
401
402
403
406
407
408
411
412
413
416
417
418
421
422
423
426
427
428
431
432
433
436
437
438
441
442
443
446
447
448
451
452
453
456
457
458
461
462
463
466
467
468
471
472
473
476
477
478
481
482
483
486
487
488
491
492
493
496
497
498
501
502
503
506
507
508
511
512
513
516
517
518
521
522
523
526
527
528
531
532
533
934
935
936
937
938
939
940
941
942
943
944
945
946
947
948
949
950
951
952
953
954
955
956
957
958
959
960
961
962
963
964
965
966
967
968
969
970
971
972
973
974
975
976
977
978
979
980
981
982
983
984
985
986
987
988
989
990
991
992
993
994
995
996
997
998
999
1000
1001
1002
1003
1004
1005
1006
1007
1008
1009
1010
1011
1012
1013
1014
1015
1016
1017
1018
1019
1020
1021
1022
1023
1024
1025
1026
1027
1028
1029
1030
1031
1032
1033
)


519
(
14
15
16
17
18
19
20
22
23
24
25
26
27
28
29
30
31
32
33
36
37
38
41
42
43
46
47
48
51
52
53
56
57
58
61
62
63
66
67
68
71
72
73
76
77
78
81
82
83
86
87
88
91
92
93
96
97
98
101
102
103
106
107
108
111
112
113
116
117
118
121
122
123
126
127
128
131
132
133
136
137
138
141
142
143
146
147
148
151
152
153
156
157
158
161
162
163
166
167
168
171
172
173
176
177
178
181
182
183
186
187
188
191
192
193
196
197
198
201
202
203
206
207
208
211
212
213
216
217
218
221
222
223
226
227
228
231
232
233
236
237
238
241
242
243
246
247
248
251
252
253
256
257
258
261
262
263
266
267
268
271
272
273
276
277
278
281
282
283
286
287
288
291
292
293
296
297
298
301
302
303
306
307
308
311
312
313
316
317
318
321
322
323
326
327
328
331
332
333
336
337
338
341
342
343
346
347
348
351
352
353
356
357
358
361
362
363
366
367
368
371
372
373
376
377
378
381
382
383
386
387
388
391
392
393
396
397
398
401
402
403
406
407
408
411
412
413
416
417
418
421
422
423
426
427
428
431
432
433
436
437
438
441
442
443
446
447
448
451
452
453
456
457
458
461
462
463
466
467
468
471
472
473
476
477
478
481
482
483
486
487
488
491
492
493
496
497
498
501
502
503
506
507
508
511
512
513
516
517
518
521
522
523
526
527
528
531
532
533
834
835
836
837
838
839
840
841
842
843
844
845
846
847
848
849
850
851
852
853
854
855
856
857
858
859
860
861
862
863
864
865
866
867
868
869
870
871
872
873
874
875
876
877
878
879
880
881
882
883
884
885
886
887
888
889
890
891
892
893
894
895
896
897
898
899
900
901
902
903
904
905
906
907
908
909
910
911
912
913
914
915
916
917
918
919
920
921
922
923
924
925
926
927
928
929
930
931
932
933
934
935
936
937
938
939
940
941
942
943
944
945
946
947
948
949
950
951
952
953
954
955
956
957
958
959
960
961
962
963
964
965
966
967
968
969
970
971
972
973
974
975
976
977
978
979
980
981
982
983
984
985
986
987
988
989
990
991
992
993
994
995
996
997
998
999
1000
1001
1002
1003
1004
1005
1006
1007
1008
1009
1010
1011
1012
1013
1014
1015
1016
1017
1018
1019
1020
1021
1022
1023
1024
1025
1026
1027
1028
1029
1030
1031
1032
1033
)


418
(
14
15
16
17
18
19
20
21
22
23
24
25
28
29
30
31
32
33
34
35
36
37
39
40
41
42
44
45
46
47
49
50
51
52
54
55
56
57
59
60
61
62
64
65
66
67
69
70
71
72
74
75
76
77
79
80
81
82
84
85
86
87
89
90
91
92
94
95
96
97
99
100
101
102
104
105
106
107
109
110
111
112
114
115
116
117
119
120
121
122
124
125
126
127
129
130
131
132
134
135
136
137
139
140
141
142
144
145
146
147
149
150
151
152
154
155
156
157
159
160
161
162
164
165
166
167
169
170
171
172
174
175
176
177
179
180
181
182
184
185
186
187
189
190
191
192
194
195
196
197
199
200
201
202
204
205
206
207
209
210
211
212
214
215
216
217
219
220
221
222
224
225
226
227
229
230
231
232
234
235
236
237
239
240
241
242
244
245
246
247
249
250
251
252
254
255
256
257
259
260
261
262
264
265
266
267
269
270
271
272
274
275
276
277
279
280
281
282
284
285
286
287
289
290
291
292
294
295
296
297
299
300
301
302
304
305
306
307
309
310
311
312
314
315
316
317
319
320
321
322
324
325
326
327
329
330
331
332
334
335
336
337
339
340
341
342
344
345
346
347
349
350
351
352
354
355
356
357
359
360
361
362
364
365
366
367
369
370
371
372
374
375
376
377
379
380
381
382
384
385
386
387
389
390
391
392
394
395
396
397
399
400
401
402
404
405
406
407
409
410
411
412
414
415
416
417
419
420
421
422
424
425
426
427
429
430
431
432
434
435
436
437
439
440
441
442
444
445
446
447
449
450
451
452
454
455
456
457
459
460
461
462
464
465
466
467
469
470
471
472
474
475
476
477
479
480
481
482
484
485
486
487
489
490
491
492
494
495
496
497
499
500
501
502
504
505
506
507
509
510
511
512
514
515
516
517
519
520
521
522
524
525
526
527
529
530
531
532
)


419
(
14
15
16
17
18
19
20
21
22
24
25
26
27
28
29
30
31
32
33
36
37
38
41
42
43
46
47
48
51
52
53
56
57
58
61
62
63
66
67
68
71
72
73
76
77
78
81
82
83
86
87
88
91
92
93
96
97
98
101
102
103
106
107
108
111
112
113
116
117
118
121
122
123
126
127
128
131
132
133
136
137
138
141
142
143
146
147
148
151
152
153
156
157
158
161
162
163
166
167
168
171
172
173
176
177
178
181
182
183
186
187
188
191
192
193
196
197
198
201
202
203
206
207
208
211
212
213
216
217
218
221
222
223
226
227
228
231
232
233
236
237
238
241
242
243
246
247
248
251
252
253
256
257
258
261
262
263
266
267
268
271
272
273
276
277
278
281
282
283
286
287
288
291
292
293
296
297
298
301
302
303
306
307
308
311
312
313
316
317
318
321
322
323
326
327
328
331
332
333
336
337
338
341
342
343
346
347
348
351
352
353
356
357
358
361
362
363
366
367
368
371
372
373
376
377
378
381
382
383
386
387
388
391
392
393
396
397
398
401
402
403
406
407
408
411
412
413
416
417
418
421
422
423
426
427
428
431
432
433
436
437
438
441
442
443
446
447
448
451
452
453
456
457
458
461
462
463
466
467
468
471
472
473
476
477
478
481
482
483
486
487
488
491
492
493
496
497
498
501
502
503
506
507
508
511
512
513
516
517
518
521
522
523
526
527
528
531
532
533
934
935
936
937
938
939
940
941
942
943
944
945
946
947
948
949
950
951
952
953
954
955
956
957
958
959
960
961
962
963
964
965
966
967
968
969
970
971
972
973
974
975
976
977
978
979
980
981
982
983
984
985
986
987
988
989
990
991
992
993
994
995
996
997
998
999
1000
1001
1002
1003
1004
1005
1006
1007
1008
1009
1010
1011
1012
1013
1014
1015
1016
1017
1018
1019
1020
1021
1022
1023
1024
1025
1026
1027
1028
1029
1030
1031
1032
1033
)


418
(
14
15
16
17
19
20
21
22
23
24
25
26
28
29
30
31
32
33
34
35
39
40
44
45
49
50
54
55
59
60
64
65
69
70
74
75
79
80
84
85
89
90
94
95
99
100
104
105
109
110
114
115
119
120
124
125
129
130
134
135
139
140
144
145
149
150
154
155
159
160
164
165
169
170
174
175
179
180
184
185
189
190
194
195
199
200
204
205
209
210
214
215
219
220
224
225
229
230
234
235
239
240
244
245
249
250
254
255
259
260
264
265
269
270
274
275
279
280
284
285
289
290
294
295
299
300
304
305
309
310
314
315
319
320
324
325
329
330
334
335
339
340
344
345
349
350
354
355
359
360
364
365
369
370
374
375
379
380
384
385
389
390
394
395
399
400
404
405
409
410
414
415
419
420
424
425
429
430
434
435
439
440
444
445
449
450
454
455
459
460
464
465
469
470
474
475
479
480
484
485
489
490
494
495
499
500
504
505
509
510
514
515
519
520
524
525
529
530
534
535
536
537
538
539
540
541
542
543
544
545
546
547
548
549
550
551
552
553
554
555
556
557
558
559
560
561
562
563
564
565
566
567
568
569
570
571
572
573
574
575
576
577
578
579
580
581
582
583
584
585
586
587
588
589
590
591
592
593
594
595
596
597
598
599
600
601
602
603
604
605
606
607
608
609
610
611
612
613
614
615
616
617
618
619
620
621
622
623
624
625
626
627
628
629
630
631
632
633
634
635
636
637
638
639
640
641
642
643
644
645
646
647
648
649
650
651
652
653
654
655
656
657
658
659
660
661
662
663
664
665
666
667
668
669
670
671
672
673
674
675
676
677
678
679
680
681
682
683
684
685
686
687
688
689
690
691
692
693
694
695
696
697
698
699
700
701
702
703
704
705
706
707
708
709
710
711
712
713
714
715
716
717
718
719
720
721
722
723
724
725
726
727
728
729
730
731
732
733
)


420
(
14
15
16
17
18
19
20
21
22
23
24
25
26
27
28
29
30
31
32
33
34
39
44
49
54
59
64
69
74
79
84
89
94
99
104
109
114
119
124
129
134
139
144
149
154
159
164
169
174
179
184
189
194
199
204
209
214
219
224
229
234
239
244
249
254
259
264
269
274
279
284
289
294
299
304
309
314
319
324
329
334
339
344
349
354
359
364
369
374
379
384
389
394
399
404
409
414
419
424
429
434
439
444
449
454
459
464
469
474
479
484
489
494
499
504
509
514
519
524
529
534
535
536
537
538
539
540
541
542
543
544
545
546
547
548
549
550
551
552
553
554
555
556
557
558
559
560
561
562
563
564
565
566
567
568
569
570
571
572
573
574
575
576
577
578
579
580
581
582
583
584
585
586
587
588
589
590
591
592
593
594
595
596
597
598
599
600
601
602
603
604
605
606
607
608
609
610
611
612
613
614
615
616
617
618
619
620
621
622
623
624
625
626
627
628
629
630
631
632
633
634
635
636
637
638
639
640
641
642
643
644
645
646
647
648
649
650
651
652
653
654
655
656
657
658
659
660
661
662
663
664
665
666
667
668
669
670
671
672
673
674
675
676
677
678
679
680
681
682
683
684
685
686
687
688
689
690
691
692
693
694
695
696
697
698
699
700
701
702
703
704
705
706
707
708
709
710
711
712
713
714
715
716
717
718
719
720
721
722
723
724
725
726
727
728
729
730
731
732
733
734
735
736
737
738
739
740
741
742
743
744
745
746
747
748
749
750
751
752
753
754
755
756
757
758
759
760
761
762
763
764
765
766
767
768
769
770
771
772
773
774
775
776
777
778
779
780
781
782
783
784
785
786
787
788
789
790
791
792
793
794
795
796
797
798
799
800
801
802
803
804
805
806
807
808
809
810
811
812
813
814
815
816
817
818
819
820
821
822
823
824
825
826
827
828
829
830
831
832
833
)


418
(
14
15
16
18
19
21
22
23
24
25
26
27
28
29
30
31
32
33
34
39
44
49
54
59
64
69
74
79
84
89
94
99
104
109
114
119
124
129
134
139
144
149
154
159
164
169
174
179
184
189
194
199
204
209
214
219
224
229
234
239
244
249
254
259
264
269
274
279
284
289
294
299
304
309
314
319
324
329
334
339
344
349
354
359
364
369
374
379
384
389
394
399
404
409
414
419
424
429
434
439
444
449
454
459
464
469
474
479
484
489
494
499
504
509
514
519
524
529
534
535
536
537
538
539
540
541
542
543
544
545
546
547
548
549
550
551
552
553
554
555
556
557
558
559
560
561
562
563
564
565
566
567
568
569
570
571
572
573
574
575
576
577
578
579
580
581
582
583
584
585
586
587
588
589
590
591
592
593
594
595
596
597
598
599
600
601
602
603
604
605
606
607
608
609
610
611
612
613
614
615
616
617
618
619
620
621
622
623
624
625
626
627
628
629
630
631
632
633
634
635
636
637
638
639
640
641
642
643
644
645
646
647
648
649
650
651
652
653
654
655
656
657
658
659
660
661
662
663
664
665
666
667
668
669
670
671
672
673
674
675
676
677
678
679
680
681
682
683
684
685
686
687
688
689
690
691
692
693
694
695
696
697
698
699
700
701
702
703
704
705
706
707
708
709
710
711
712
713
714
715
716
717
718
719
720
721
722
723
724
725
726
727
728
729
730
731
732
733
734
735
736
737
738
739
740
741
742
743
744
745
746
747
748
749
750
751
752
753
754
755
756
757
758
759
760
761
762
763
764
765
766
767
768
769
770
771
772
773
774
775
776
777
778
779
780
781
782
783
784
785
786
787
788
789
790
791
792
793
794
795
796
797
798
799
800
801
802
803
804
805
806
807
808
809
810
811
812
813
814
815
816
817
818
819
820
821
822
823
824
825
826
827
828
829
830
831
832
833
)


519
(
14
16
17
18
19
20
21
22
23
24
25
26
27
28
29
30
31
32
33
38
43
48
53
58
63
68
73
78
83
88
93
98
103
108
113
118
123
128
133
138
143
148
153
158
163
168
173
178
183
188
193
198
203
208
213
218
223
228
233
238
243
248
253
258
263
268
273
278
283
288
293
298
303
308
313
318
323
328
333
338
343
348
353
358
363
368
373
378
383
388
393
398
403
408
413
418
423
428
433
438
443
448
453
458
463
468
473
478
483
488
493
498
503
508
513
518
523
528
533
634
635
636
637
638
639
640
641
642
643
644
645
646
647
648
649
650
651
652
653
654
655
656
657
658
659
660
661
662
663
664
665
666
667
668
669
670
671
672
673
674
675
676
677
678
679
680
681
682
683
684
685
686
687
688
689
690
691
692
693
694
695
696
697
698
699
700
701
702
703
704
705
706
707
708
709
710
711
712
713
714
715
716
717
718
719
720
721
722
723
724
725
726
727
728
729
730
731
732
733
734
735
736
737
738
739
740
741
742
743
744
745
746
747
748
749
750
751
752
753
754
755
756
757
758
759
760
761
762
763
764
765
766
767
768
769
770
771
772
773
774
775
776
777
778
779
780
781
782
783
784
785
786
787
788
789
790
791
792
793
794
795
796
797
798
799
800
801
802
803
804
805
806
807
808
809
810
811
812
813
814
815
816
817
818
819
820
821
822
823
824
825
826
827
828
829
830
831
832
833
834
835
836
837
838
839
840
841
842
843
844
845
846
847
848
849
850
851
852
853
854
855
856
857
858
859
860
861
862
863
864
865
866
867
868
869
870
871
872
873
874
875
876
877
878
879
880
881
882
883
884
885
886
887
888
889
890
891
892
893
894
895
896
897
898
899
900
901
902
903
904
905
906
907
908
909
910
911
912
913
914
915
916
917
918
919
920
921
922
923
924
925
926
927
928
929
930
931
932
933
934
935
936
937
938
939
940
941
942
943
944
945
946
947
948
949
950
951
952
953
954
955
956
957
958
959
960
961
962
963
964
965
966
967
968
969
970
971
972
973
974
975
976
977
978
979
980
981
982
983
984
985
986
987
988
989
990
991
992
993
994
995
996
997
998
999
1000
1001
1002
1003
1004
1005
1006
1007
1008
1009
1010
1011
1012
1013
1014
1015
1016
1017
1018
1019
1020
1021
1022
1023
1024
1025
1026
1027
1028
1029
1030
1031
1032
1033
)


316
(
14
15
17
18
19
20
21
22
23
24
25
26
27
31
32
33
634
635
636
637
638
639
640
641
642
643
644
645
646
647
648
649
650
651
652
653
654
655
656
657
658
659
660
661
662
663
664
665
666
667
668
669
670
671
672
673
674
675
676
677
678
679
680
681
682
683
684
685
686
687
688
689
690
691
692
693
694
695
696
697
698
699
700
701
702
703
704
705
706
707
708
709
710
711
712
713
714
715
716
717
718
719
720
721
722
723
724
725
726
727
728
729
730
731
732
733
734
735
736
737
738
739
740
741
742
743
744
745
746
747
748
749
750
751
752
753
754
755
756
757
758
759
760
761
762
763
764
765
766
767
768
769
770
771
772
773
774
775
776
777
778
779
780
781
782
783
784
785
786
787
788
789
790
791
792
793
794
795
796
797
798
799
800
801
802
803
804
805
806
807
808
809
810
811
812
813
814
815
816
817
818
819
820
821
822
823
824
825
826
827
828
829
830
831
832
833
834
835
836
837
838
839
840
841
842
843
844
845
846
847
848
849
850
851
852
853
854
855
856
857
858
859
860
861
862
863
864
865
866
867
868
869
870
871
872
873
874
875
876
877
878
879
880
881
882
883
884
885
886
887
888
889
890
891
892
893
894
895
896
897
898
899
900
901
902
903
904
905
906
907
908
909
910
911
912
913
914
915
916
917
918
919
920
921
922
923
924
925
926
927
928
929
930
931
932
933
)


417
(
14
17
18
20
21
22
23
24
25
26
27
28
29
30
31
32
33
634
635
636
637
638
639
640
641
642
643
644
645
646
647
648
649
650
651
652
653
654
655
656
657
658
659
660
661
662
663
664
665
666
667
668
669
670
671
672
673
674
675
676
677
678
679
680
681
682
683
684
685
686
687
688
689
690
691
692
693
694
695
696
697
698
699
700
701
702
703
704
705
706
707
708
709
710
711
712
713
714
715
716
717
718
719
720
721
722
723
724
725
726
727
728
729
730
731
732
733
734
735
736
737
738
739
740
741
742
743
744
745
746
747
748
749
750
751
752
753
754
755
756
757
758
759
760
761
762
763
764
765
766
767
768
769
770
771
772
773
774
775
776
777
778
779
780
781
782
783
784
785
786
787
788
789
790
791
792
793
794
795
796
797
798
799
800
801
802
803
804
805
806
807
808
809
810
811
812
813
814
815
816
817
818
819
820
821
822
823
824
825
826
827
828
829
830
831
832
833
834
835
836
837
838
839
840
841
842
843
844
845
846
847
848
849
850
851
852
853
854
855
856
857
858
859
860
861
862
863
864
865
866
867
868
869
870
871
872
873
874
875
876
877
878
879
880
881
882
883
884
885
886
887
888
889
890
891
892
893
894
895
896
897
898
899
900
901
902
903
904
905
906
907
908
909
910
911
912
913
914
915
916
917
918
919
920
921
922
923
924
925
926
927
928
929
930
931
932
933
934
935
936
937
938
939
940
941
942
943
944
945
946
947
948
949
950
951
952
953
954
955
956
957
958
959
960
961
962
963
964
965
966
967
968
969
970
971
972
973
974
975
976
977
978
979
980
981
982
983
984
985
986
987
988
989
990
991
992
993
994
995
996
997
998
999
1000
1001
1002
1003
1004
1005
1006
1007
1008
1009
1010
1011
1012
1013
1014
1015
1016
1017
1018
1019
1020
1021
1022
1023
1024
1025
1026
1027
1028
1029
1030
1031
1032
1033
)


215
(
17
18
20
22
23
24
25
26
27
28
29
30
31
32
33
834
835
836
837
838
839
840
841
842
843
844
845
846
847
848
849
850
851
852
853
854
855
856
857
858
859
860
861
862
863
864
865
866
867
868
869
870
871
872
873
874
875
876
877
878
879
880
881
882
883
884
885
886
887
888
889
890
891
892
893
894
895
896
897
898
899
900
901
902
903
904
905
906
907
908
909
910
911
912
913
914
915
916
917
918
919
920
921
922
923
924
925
926
927
928
929
930
931
932
933
934
935
936
937
938
939
940
941
942
943
944
945
946
947
948
949
950
951
952
953
954
955
956
957
958
959
960
961
962
963
964
965
966
967
968
969
970
971
972
973
974
975
976
977
978
979
980
981
982
983
984
985
986
987
988
989
990
991
992
993
994
995
996
997
998
999
1000
1001
1002
1003
1004
1005
1006
1007
1008
1009
1010
1011
1012
1013
1014
1015
1016
1017
1018
1019
1020
1021
1022
1023
1024
1025
1026
1027
1028
1029
1030
1031
1032
1033
)


419
(
0
1
2
3
4
5
6
7
8
9
10
11
12
28
29
30
31
32
33
34
35
39
40
44
45
49
50
54
55
59
60
64
65
69
70
74
75
79
80
84
85
89
90
94
95
99
100
104
105
109
110
114
115
119
120
124
125
129
130
134
135
139
140
144
145
149
150
154
155
159
160
164
165
169
170
174
175
179
180
184
185
189
190
194
195
199
200
204
205
209
210
214
215
219
220
224
225
229
230
234
235
239
240
244
245
249
250
254
255
259
260
264
265
269
270
274
275
279
280
284
285
289
290
294
295
299
300
304
305
309
310
314
315
319
320
324
325
329
330
334
335
339
340
344
345
349
350
354
355
359
360
364
365
369
370
374
375
379
380
384
385
389
390
394
395
399
400
404
405
409
410
414
415
419
420
424
425
429
430
434
435
439
440
444
445
449
450
454
455
459
460
464
465
469
470
474
475
479
480
484
485
489
490
494
495
499
500
504
505
509
510
514
515
519
520
524
525
529
530
534
535
536
537
538
539
540
541
542
543
544
545
546
547
548
549
550
551
552
553
554
555
556
557
558
559
560
561
562
563
564
565
566
567
568
569
570
571
572
573
574
575
576
577
578
579
580
581
582
583
584
585
586
587
588
589
590
591
592
593
594
595
596
597
598
599
600
601
602
603
604
605
606
607
608
609
610
611
612
613
614
615
616
617
618
619
620
621
622
623
624
625
626
627
628
629
630
631
632
633
634
635
636
637
638
639
640
641
642
643
644
645
646
647
648
649
650
651
652
653
654
655
656
657
658
659
660
661
662
663
664
665
666
667
668
669
670
671
672
673
674
675
676
677
678
679
680
681
682
683
684
685
686
687
688
689
690
691
692
693
694
695
696
697
698
699
700
701
702
703
704
705
706
707
708
709
710
711
712
713
714
715
716
717
718
719
720
721
722
723
724
725
726
727
728
729
730
731
732
733
)


416
(
0
1
2
3
4
5
6
7
8
9
11
28
29
30
32
33
34
35
36
39
40
41
44
45
46
49
50
51
54
55
56
59
60
61
64
65
66
69
70
71
74
75
76
79
80
81
84
85
86
89
90
91
94
95
96
99
100
101
104
105
106
109
110
111
114
115
116
119
120
121
124
125
126
129
130
131
134
135
136
139
140
141
144
145
146
149
150
151
154
155
156
159
160
161
164
165
166
169
170
171
174
175
176
179
180
181
184
185
186
189
190
191
194
195
196
199
200
201
204
205
206
209
210
211
214
215
216
219
220
221
224
225
226
229
230
231
234
235
236
239
240
241
244
245
246
249
250
251
254
255
256
259
260
261
264
265
266
269
270
271
274
275
276
279
280
281
284
285
286
289
290
291
294
295
296
299
300
301
304
305
306
309
310
311
314
315
316
319
320
321
324
325
326
329
330
331
334
335
336
339
340
341
344
345
346
349
350
351
354
355
356
359
360
361
364
365
366
369
370
371
374
375
376
379
380
381
384
385
386
389
390
391
394
395
396
399
400
401
404
405
406
409
410
411
414
415
416
419
420
421
424
425
426
429
430
431
434
435
436
439
440
441
444
445
446
449
450
451
454
455
456
459
460
461
464
465
466
469
470
471
474
475
476
479
480
481
484
485
486
489
490
491
494
495
496
499
500
501
504
505
506
509
510
511
514
515
516
519
520
521
524
525
526
529
530
531
534
535
536
537
538
539
540
541
542
543
544
545
546
547
548
549
550
551
552
553
554
555
556
557
558
559
560
561
562
563
564
565
566
567
568
569
570
571
572
573
574
575
576
577
578
579
580
581
582
583
584
585
586
587
588
589
590
591
592
593
594
595
596
597
598
599
600
601
602
603
604
605
606
607
608
609
610
611
612
613
614
615
616
617
618
619
620
621
622
623
624
625
626
627
628
629
630
631
632
633
)


316
(
0
1
2
3
4
5
6
7
8
9
10
28
29
30
31
32
35
36
37
40
41
42
45
46
47
50
51
52
55
56
57
60
61
62
65
66
67
70
71
72
75
76
77
80
81
82
85
86
87
90
91
92
95
96
97
100
101
102
105
106
107
110
111
112
115
116
117
120
121
122
125
126
127
130
131
132
135
136
137
140
141
142
145
146
147
150
151
152
155
156
157
160
161
162
165
166
167
170
171
172
175
176
177
180
181
182
185
186
187
190
191
192
195
196
197
200
201
202
205
206
207
210
211
212
215
216
217
220
221
222
225
226
227
230
231
232
235
236
237
240
241
242
245
246
247
250
251
252
255
256
257
260
261
262
265
266
267
270
271
272
275
276
277
280
281
282
285
286
287
290
291
292
295
296
297
300
301
302
305
306
307
310
311
312
315
316
317
320
321
322
325
326
327
330
331
332
335
336
337
340
341
342
345
346
347
350
351
352
355
356
357
360
361
362
365
366
367
370
371
372
375
376
377
380
381
382
385
386
387
390
391
392
395
396
397
400
401
402
405
406
407
410
411
412
415
416
417
420
421
422
425
426
427
430
431
432
435
436
437
440
441
442
445
446
447
450
451
452
455
456
457
460
461
462
465
466
467
470
471
472
475
476
477
480
481
482
485
486
487
490
491
492
495
496
497
500
501
502
505
506
507
510
511
512
515
516
517
520
521
522
525
526
527
530
531
532
)


419
(
0
1
2
3
4
5
6
7
8
10
11
12
13
28
29
30
31
32
33
36
37
38
41
42
43
46
47
48
51
52
53
56
57
58
61
62
63
66
67
68
71
72
73
76
77
78
81
82
83
86
87
88
91
92
93
96
97
98
101
102
103
106
107
108
111
112
113
116
117
118
121
122
123
126
127
128
131
132
133
136
137
138
141
142
143
146
147
148
151
152
153
156
157
158
161
162
163
166
167
168
171
172
173
176
177
178
181
182
183
186
187
188
191
192
193
196
197
198
201
202
203
206
207
208
211
212
213
216
217
218
221
222
223
226
227
228
231
232
233
236
237
238
241
242
243
246
247
248
251
252
253
256
257
258
261
262
263
266
267
268
271
272
273
276
277
278
281
282
283
286
287
288
291
292
293
296
297
298
301
302
303
306
307
308
311
312
313
316
317
318
321
322
323
326
327
328
331
332
333
336
337
338
341
342
343
346
347
348
351
352
353
356
357
358
361
362
363
366
367
368
371
372
373
376
377
378
381
382
383
386
387
388
391
392
393
396
397
398
401
402
403
406
407
408
411
412
413
416
417
418
421
422
423
426
427
428
431
432
433
436
437
438
441
442
443
446
447
448
451
452
453
456
457
458
461
462
463
466
467
468
471
472
473
476
477
478
481
482
483
486
487
488
491
492
493
496
497
498
501
502
503
506
507
508
511
512
513
516
517
518
521
522
523
526
527
528
531
532
533
934
935
936
937
938
939
940
941
942
943
944
945
946
947
948
949
950
951
952
953
954
955
956
957
958
959
960
961
962
963
964
965
966
967
968
969
970
971
972
973
974
975
976
977
978
979
980
981
982
983
984
985
986
987
988
989
990
991
992
993
994
995
996
997
998
999
1000
1001
1002
1003
1004
1005
1006
1007
1008
1009
1010
1011
1012
1013
1014
1015
1016
1017
1018
1019
1020
1021
1022
1023
1024
1025
1026
1027
1028
1029
1030
1031
1032
1033
)


519
(
0
1
2
3
4
5
6
8
9
10
11
12
13
28
29
30
31
32
33
36
37
38
41
42
43
46
47
48
51
52
53
56
57
58
61
62
63
66
67
68
71
72
73
76
77
78
81
82
83
86
87
88
91
92
93
96
97
98
101
102
103
106
107
108
111
112
113
116
117
118
121
122
123
126
127
128
131
132
133
136
137
138
141
142
143
146
147
148
151
152
153
156
157
158
161
162
163
166
167
168
171
172
173
176
177
178
181
182
183
186
187
188
191
192
193
196
197
198
201
202
203
206
207
208
211
212
213
216
217
218
221
222
223
226
227
228
231
232
233
236
237
238
241
242
243
246
247
248
251
252
253
256
257
258
261
262
263
266
267
268
271
272
273
276
277
278
281
282
283
286
287
288
291
292
293
296
297
298
301
302
303
306
307
308
311
312
313
316
317
318
321
322
323
326
327
328
331
332
333
336
337
338
341