/*--------------------------------*- C++ -*----------------------------------*\
| =========                 |                                                 |
| \\      /  F ield         | OpenFOAM: The Open Source CFD Toolbox           |
|  \\    /   O peration     | Version:  4.0                                   |
|   \\  /    A nd           | Web:      www.OpenFOAM.org                      |
|    \\/     M anipulation  |                                                 |
\*---------------------------------------------------------------------------*/
FoamFile
{
    version     2.0;
    format      ascii;
    class       labelListList;
    location    "constant";
    object      globalFaceFaces;
}
// * * * * * * * * * * * * * * * * * * * * * * * * * * * * * * * * * * * * * //


1061
(

338
(
15
16
17
18
19
21
22
24
25
26
27
28
29
30
31
33
34
36
37
39
40
42
43
45
46
48
49
50
51
52
53
54
55
56
57
58
59
60
61
62
67
68
73
74
79
80
85
86
91
92
97
98
103
104
109
110
115
116
121
122
127
128
133
134
139
140
145
146
151
152
157
158
163
164
169
170
175
176
181
182
187
188
193
194
199
200
205
206
211
212
217
218
223
224
229
230
235
236
241
242
247
248
253
254
259
260
265
266
271
272
277
278
283
284
289
290
295
296
301
302
307
308
313
314
319
320
325
326
331
332
337
338
343
344
349
350
355
356
361
362
367
368
373
374
379
380
385
386
391
392
397
398
403
404
409
410
415
416
421
422
427
428
433
434
439
440
445
446
451
452
457
458
463
464
469
470
475
476
481
482
487
488
493
494
499
500
505
506
511
512
517
518
523
524
529
530
535
536
541
542
547
548
553
554
559
560
565
566
571
572
577
578
583
584
589
590
595
596
601
602
607
608
613
614
619
620
625
626
631
632
637
638
643
644
649
650
655
656
661
662
663
664
665
666
667
668
669
670
671
672
673
674
675
676
677
678
679
680
681
682
683
684
685
686
687
688
689
690
691
692
693
694
695
696
697
698
699
700
701
702
703
704
705
706
707
708
709
710
711
712
713
714
715
716
717
718
719
720
721
722
723
724
725
726
727
728
729
730
731
732
733
734
735
736
737
738
739
740
741
742
743
744
745
746
747
748
749
750
751
752
753
754
755
756
757
758
759
760
)


444
(
15
16
17
18
19
20
21
22
23
24
25
26
27
30
31
32
33
34
35
36
37
38
39
40
41
42
43
44
45
46
47
48
49
50
51
52
53
54
55
56
57
58
59
60
61
62
63
64
67
68
69
70
73
74
75
76
79
80
81
82
85
86
87
88
91
92
93
94
97
98
99
100
103
104
105
106
109
110
111
112
115
116
117
118
121
122
123
124
127
128
129
130
133
134
135
136
139
140
141
142
145
146
147
148
151
152
153
154
157
158
159
160
163
164
165
166
169
170
171
172
175
176
177
178
181
182
183
184
187
188
189
190
193
194
195
196
199
200
201
202
205
206
207
208
211
212
213
214
217
218
219
220
223
224
225
226
229
230
231
232
235
236
237
238
241
242
243
244
247
248
249
250
253
254
255
256
259
260
261
262
265
266
267
268
271
272
273
274
277
278
279
280
283
284
285
286
289
290
291
292
295
296
297
298
301
302
303
304
307
308
309
310
313
314
315
316
319
320
321
322
325
326
327
328
331
332
333
334
337
338
339
340
343
344
345
346
349
350
351
352
355
356
357
358
361
362
363
364
367
368
369
370
373
374
375
376
379
380
381
382
385
386
387
388
391
392
393
394
397
398
399
400
403
404
405
406
409
410
411
412
415
416
417
418
421
422
423
424
427
428
429
430
433
434
435
436
439
440
441
442
445
446
447
448
451
452
453
454
457
458
459
460
463
464
465
466
469
470
471
472
475
476
477
478
481
482
483
484
487
488
489
490
493
494
495
496
499
500
501
502
505
506
507
508
511
512
513
514
517
518
519
520
523
524
525
526
529
530
531
532
535
536
537
538
541
542
543
544
547
548
549
550
553
554
555
556
559
560
561
562
565
566
567
568
571
572
573
574
577
578
579
580
583
584
585
586
589
590
591
592
595
596
597
598
601
602
603
604
607
608
609
610
613
614
615
616
619
620
621
622
625
626
627
628
631
632
633
634
637
638
639
640
643
644
645
646
649
650
651
652
655
656
657
658
)


522
(
15
16
17
18
19
20
21
22
23
25
26
27
30
31
32
33
34
35
36
37
38
39
40
41
42
43
44
45
46
47
48
49
50
51
52
53
54
62
63
64
65
68
69
70
71
74
75
76
77
80
81
82
83
85
86
87
88
89
91
92
93
94
95
97
98
99
100
101
103
104
105
106
107
109
110
111
112
113
116
117
118
119
121
122
123
124
125
127
128
129
130
131
133
134
135
136
137
139
140
141
142
143
145
146
147
148
149
151
152
153
154
155
157
158
159
160
161
163
164
165
166
167
169
170
171
172
173
175
176
177
178
179
181
182
183
184
185
187
188
189
190
191
193
194
195
196
197
199
200
201
202
203
205
206
207
208
209
211
212
213
214
215
217
218
219
220
221
223
224
225
226
227
229
230
231
232
233
235
236
237
238
239
241
242
243
244
245
248
249
250
251
253
254
255
256
257
260
261
262
263
265
266
267
268
269
271
272
273
274
275
277
278
279
280
281
283
284
285
286
287
289
290
291
292
293
295
296
297
298
299
302
303
304
305
307
308
309
310
311
313
314
315
316
317
319
320
321
322
323
326
327
328
329
331
332
333
334
335
337
338
339
340
341
344
345
346
347
349
350
351
352
353
356
357
358
359
361
362
363
364
365
367
368
369
370
371
373
374
375
376
377
379
380
381
382
383
385
386
387
388
389
391
392
393
394
395
397
398
399
400
401
403
404
405
406
407
409
410
411
412
413
415
416
417
418
419
422
423
424
425
427
428
429
430
431
433
434
435
436
437
440
441
442
443
445
446
447
448
449
451
452
453
454
455
457
458
459
460
461
463
464
465
466
467
469
470
471
472
473
475
476
477
478
479
481
482
483
484
485
487
488
489
490
491
493
494
495
496
497
499
500
501
502
503
505
506
507
508
509
511
512
513
514
515
517
518
519
520
521
523
524
525
526
527
529
530
531
532
533
536
537
538
539
541
542
543
544
545
547
548
549
550
551
553
554
555
556
557
559
560
561
562
563
565
566
567
568
569
571
572
573
574
575
577
578
579
580
581
583
584
585
586
587
589
590
591
592
593
595
596
597
598
599
601
602
603
604
605
607
608
609
610
611
613
614
615
616
617
619
620
621
622
623
625
626
627
628
629
631
632
633
634
635
638
639
640
641
643
644
645
646
647
649
650
651
652
653
655
656
657
658
659
)


507
(
15
16
17
18
19
20
21
22
23
24
25
26
29
30
31
32
33
34
35
36
37
38
39
40
41
42
43
44
45
46
47
48
49
50
51
52
53
54
55
56
57
58
59
60
62
63
64
65
66
68
69
70
71
72
74
75
76
77
78
80
81
82
83
84
86
87
88
89
90
92
93
94
95
96
98
99
100
101
102
104
105
106
107
108
110
111
112
113
116
117
118
119
122
123
124
125
128
129
130
131
132
134
135
136
137
140
141
142
143
146
147
148
149
152
153
154
155
158
159
160
161
164
165
166
167
168
170
171
172
173
174
176
177
178
179
182
183
184
185
188
189
190
191
194
195
196
197
200
201
202
203
204
206
207
208
209
212
213
214
215
216
218
219
220
221
224
225
226
227
228
230
231
232
233
236
237
238
239
240
242
243
244
245
248
249
250
251
254
255
256
257
258
260
261
262
263
264
266
267
268
269
270
272
273
274
275
278
279
280
281
282
284
285
286
287
288
290
291
292
293
296
297
298
299
300
302
303
304
305
306
308
309
310
311
312
314
315
316
317
320
321
322
323
324
326
327
328
329
332
333
334
335
338
339
340
341
342
344
345
346
347
350
351
352
353
354
356
357
358
359
360
362
363
364
365
366
368
369
370
371
372
374
375
376
377
378
380
381
382
383
384
386
387
388
389
390
392
393
394
395
396
398
399
400
401
402
404
405
406
407
408
410
411
412
413
416
417
418
419
420
422
423
424
425
426
428
429
430
431
432
434
435
436
437
438
440
441
442
443
444
446
447
448
449
450
452
453
454
455
456
458
459
460
461
462
464
465
466
467
470
471
472
473
474
476
477
478
479
482
483
484
485
486
488
489
490
491
492
494
495
496
497
498
500
501
502
503
506
507
508
509
510
512
513
514
515
516
518
519
520
521
524
525
526
527
528
530
531
532
533
536
537
538
539
540
542
543
544
545
548
549
550
551
552
554
555
556
557
560
561
562
563
564
566
567
568
569
570
572
573
574
575
578
579
580
581
582
584
585
586
587
590
591
592
593
594
596
597
598
599
602
603
604
605
606
608
609
610
611
612
614
615
616
617
620
621
622
623
624
626
627
628
629
630
632
633
634
635
636
638
639
640
641
644
645
646
647
648
650
651
652
653
656
657
658
659
660
)


437
(
15
16
17
18
19
20
21
22
23
24
25
29
30
31
32
33
34
35
36
37
38
39
40
41
42
43
44
45
46
47
48
55
56
57
58
59
60
63
64
65
66
69
70
71
72
75
76
77
78
81
82
83
84
87
88
89
90
93
94
95
96
99
100
101
102
105
106
107
108
111
112
113
114
117
118
119
120
123
124
125
126
129
130
131
132
135
136
137
138
141
142
143
144
147
148
149
150
153
154
155
156
159
160
161
162
165
166
167
168
171
172
173
174
177
178
179
180
183
184
185
186
189
190
191
192
195
196
197
198
201
202
203
204
207
208
209
210
213
214
215
216
219
220
221
222
225
226
227
228
231
232
233
234
237
238
239
240
243
244
245
246
249
250
251
252
255
256
257
258
261
262
263
264
267
268
269
270
273
274
275
276
279
280
281
282
285
286
287
288
291
292
293
294
297
298
299
300
303
304
305
306
309
310
311
312
315
316
317
318
321
322
323
324
327
328
329
330
333
334
335
336
339
340
341
342
345
346
347
348
351
352
353
354
357
358
359
360
363
364
365
366
369
370
371
372
375
376
377
378
381
382
383
384
387
388
389
390
393
394
395
396
399
400
401
402
405
406
407
408
411
412
413
414
417
418
419
420
423
424
425
426
429
430
431
432
435
436
437
438
441
442
443
444
447
448
449
450
453
454
455
456
459
460
461
462
465
466
467
468
471
472
473
474
477
478
479
480
483
484
485
486
489
490
491
492
495
496
497
498
501
502
503
504
507
508
509
510
513
514
515
516
519
520
521
522
525
526
527
528
531
532
533
534
537
538
539
540
543
544
545
546
549
550
551
552
555
556
557
558
561
562
563
564
567
568
569
570
573
574
575
576
579
580
581
582
585
586
587
588
591
592
593
594
597
598
599
600
603
604
605
606
609
610
611
612
615
616
617
618
621
622
623
624
627
628
629
630
633
634
635
636
639
640
641
642
645
646
647
648
651
652
653
654
657
658
659
660
)


345
(
16
17
18
19
20
21
22
23
24
25
26
27
28
29
30
31
32
33
34
35
36
37
38
39
40
41
42
43
44
45
46
47
48
49
50
51
52
53
54
55
56
57
58
59
60
65
66
71
72
77
78
83
84
89
90
95
96
101
102
107
108
113
114
119
120
125
126
131
132
137
138
143
144
149
150
155
156
161
162
167
168
173
174
179
180
185
186
191
192
197
198
203
204
209
210
215
216
221
222
227
228
233
234
239
240
245
246
251
252
257
258
263
264
269
270
275
276
281
282
287
288
293
294
299
300
305
306
311
312
317
318
323
324
329
330
335
336
341
342
347
348
353
354
359
360
365
366
371
372
377
378
383
384
389
390
395
396
401
402
407
408
413
414
419
420
425
426
431
432
437
438
443
444
449
450
455
456
461
462
467
468
473
474
479
480
485
486
491
492
497
498
503
504
509
510
515
516
521
522
527
528
533
534
539
540
545
546
551
552
557
558
563
564
569
570
575
576
581
582
587
588
593
594
599
600
605
606
611
612
617
618
623
624
629
630
635
636
641
642
647
648
653
654
659
660
961
962
963
964
965
966
967
968
969
970
971
972
973
974
975
976
977
978
979
980
981
982
983
984
985
986
987
988
989
990
991
992
993
994
995
996
997
998
999
1000
1001
1002
1003
1004
1005
1006
1007
1008
1009
1010
1011
1012
1013
1014
1015
1016
1017
1018
1019
1020
1021
1022
1023
1024
1025
1026
1027
1028
1029
1030
1031
1032
1033
1034
1035
1036
1037
1038
1039
1040
1041
1042
1043
1044
1045
1046
1047
1048
1049
1050
1051
1052
1053
1054
1055
1056
1057
1058
1059
1060
)


445
(
15
16
17
18
19
20
21
22
23
24
25
26
27
29
30
31
32
33
34
35
36
37
38
39
40
41
42
43
44
45
46
47
48
49
50
51
52
53
54
55
56
57
58
59
60
62
63
64
65
68
69
70
71
74
75
76
77
80
81
82
83
86
87
88
89
92
93
94
95
98
99
100
101
104
105
106
107
110
111
112
113
116
117
118
119
122
123
124
125
128
129
130
131
134
135
136
137
140
141
142
143
146
147
148
149
152
153
154
155
158
159
160
161
164
165
166
167
170
171
172
173
176
177
178
179
182
183
184
185
188
189
190
191
194
195
196
197
200
201
202
203
206
207
208
209
212
213
214
215
218
219
220
221
224
225
226
227
230
231
232
233
236
237
238
239
242
243
244
245
248
249
250
251
254
255
256
257
260
261
262
263
266
267
268
269
272
273
274
275
278
279
280
281
284
285
286
287
290
291
292
293
296
297
298
299
302
303
304
305
308
309
310
311
314
315
316
317
320
321
322
323
326
327
328
329
332
333
334
335
338
339
340
341
344
345
346
347
350
351
352
353
356
357
358
359
362
363
364
365
368
369
370
371
374
375
376
377
380
381
382
383
386
387
388
389
392
393
394
395
398
399
400
401
404
405
406
407
410
411
412
413
416
417
418
419
422
423
424
425
428
429
430
431
434
435
436
437
440
441
442
443
446
447
448
449
452
453
454
455
458
459
460
461
464
465
466
467
470
471
472
473
476
477
478
479
482
483
484
485
488
489
490
491
494
495
496
497
500
501
502
503
506
507
508
509
512
513
514
515
518
519
520
521
524
525
526
527
530
531
532
533
536
537
538
539
542
543
544
545
548
549
550
551
554
555
556
557
560
561
562
563
566
567
568
569
572
573
574
575
578
579
580
581
584
585
586
587
590
591
592
593
596
597
598
599
602
603
604
605
608
609
610
611
614
615
616
617
620
621
622
623
626
627
628
629
632
633
634
635
638
639
640
641
644
645
646
647
650
651
652
653
656
657
658
659
)


445
(
15
16
17
18
19
20
21
22
23
24
25
26
27
29
30
31
32
33
34
35
36
37
38
39
40
41
42
43
44
45
46
47
48
49
50
51
52
53
54
55
56
57
58
59
60
62
63
64
65
68
69
70
71
74
75
76
77
80
81
82
83
86
87
88
89
92
93
94
95
98
99
100
101
104
105
106
107
110
111
112
113
116
117
118
119
122
123
124
125
128
129
130
131
134
135
136
137
140
141
142
143
146
147
148
149
152
153
154
155
158
159
160
161
164
165
166
167
170
171
172
173
176
177
178
179
182
183
184
185
188
189
190
191
194
195
196
197
200
201
202
203
206
207
208
209
212
213
214
215
218
219
220
221
224
225
226
227
230
231
232
233
236
237
238
239
242
243
244
245
248
249
250
251
254
255
256
257
260
261
262
263
266
267
268
269
272
273
274
275
278
279
280
281
284
285
286
287
290
291
292
293
296
297
298
299
302
303
304
305
308
309
310
311
314
315
316
317
320
321
322
323
326
327
328
329
332
333
334
335
338
339
340
341
344
345
346
347
350
351
352
353
356
357
358
359
362
363
364
365
368
369
370
371
374
375
376
377
380
381
382
383
386
387
388
389
392
393
394
395
398
399
400
401
404
405
406
407
410
411
412
413
416
417
418
419
422
423
424
425
428
429
430
431
434
435
436
437
440
441
442
443
446
447
448
449
452
453
454
455
458
459
460
461
464
465
466
467
470
471
472
473
476
477
478
479
482
483
484
485
488
489
490
491
494
495
496
497
500
501
502
503
506
507
508
509
512
513
514
515
518
519
520
521
524
525
526
527
530
531
532
533
536
537
538
539
542
543
544
545
548
549
550
551
554
555
556
557
560
561
562
563
566
567
568
569
572
573
574
575
578
579
580
581
584
585
586
587
590
591
592
593
596
597
598
599
602
603
604
605
608
609
610
611
614
615
616
617
620
621
622
623
626
627
628
629
632
633
634
635
638
639
640
641
644
645
646
647
650
651
652
653
656
657
658
659
)


445
(
16
17
18
19
20
21
22
23
24
25
26
27
28
29
30
31
32
33
34
35
36
37
38
39
40
41
42
43
44
45
46
47
48
49
50
51
52
53
54
55
56
57
58
59
60
65
66
71
72
77
78
83
84
89
90
95
96
101
102
107
108
113
114
119
120
125
126
131
132
137
138
143
144
149
150
155
156
161
162
167
168
173
174
179
180
185
186
191
192
197
198
203
204
209
210
215
216
221
222
227
228
233
234
239
240
245
246
251
252
257
258
263
264
269
270
275
276
281
282
287
288
293
294
299
300
305
306
311
312
317
318
323
324
329
330
335
336
341
342
347
348
353
354
359
360
365
366
371
372
377
378
383
384
389
390
395
396
401
402
407
408
413
414
419
420
425
426
431
432
437
438
443
444
449
450
455
456
461
462
467
468
473
474
479
480
485
486
491
492
497
498
503
504
509
510
515
516
521
522
527
528
533
534
539
540
545
546
551
552
557
558
563
564
569
570
575
576
581
582
587
588
593
594
599
600
605
606
611
612
617
618
623
624
629
630
635
636
641
642
647
648
653
654
659
660
861
862
863
864
865
866
867
868
869
870
871
872
873
874
875
876
877
878
879
880
881
882
883
884
885
886
887
888
889
890
891
892
893
894
895
896
897
898
899
900
901
902
903
904
905
906
907
908
909
910
911
912
913
914
915
916
917
918
919
920
921
922
923
924
925
926
927
928
929
930
931
932
933
934
935
936
937
938
939
940
941
942
943
944
945
946
947
948
949
950
951
952
953
954
955
956
957
958
959
960
961
962
963
964
965
966
967
968
969
970
971
972
973
974
975
976
977
978
979
980
981
982
983
984
985
986
987
988
989
990
991
992
993
994
995
996
997
998
999
1000
1001
1002
1003
1004
1005
1006
1007
1008
1009
1010
1011
1012
1013
1014
1015
1016
1017
1018
1019
1020
1021
1022
1023
1024
1025
1026
1027
1028
1029
1030
1031
1032
1033
1034
1035
1036
1037
1038
1039
1040
1041
1042
1043
1044
1045
1046
1047
1048
1049
1050
1051
1052
1053
1054
1055
1056
1057
1058
1059
1060
)


545
(
15
16
18
19
20
21
22
23
24
25
26
27
28
29
30
31
32
33
34
35
36
37
38
39
40
41
42
43
44
45
46
47
48
49
50
51
52
53
54
55
56
57
58
59
60
66
72
78
84
90
96
102
108
114
120
126
132
138
144
150
156
162
168
174
180
186
192
198
204
210
216
222
228
234
240
246
252
258
264
270
276
282
288
294
300
306
312
318
324
330
336
342
348
354
360
366
372
378
384
390
396
402
408
414
420
426
432
438
444
450
456
462
468
474
480
486
492
498
504
510
516
522
528
534
540
546
552
558
564
570
576
582
588
594
600
606
612
618
624
630
636
642
648
654
660
661
662
663
664
665
666
667
668
669
670
671
672
673
674
675
676
677
678
679
680
681
682
683
684
685
686
687
688
689
690
691
692
693
694
695
696
697
698
699
700
701
702
703
704
705
706
707
708
709
710
711
712
713
714
715
716
717
718
719
720
721
722
723
724
725
726
727
728
729
730
731
732
733
734
735
736
737
738
739
740
741
742
743
744
745
746
747
748
749
750
751
752
753
754
755
756
757
758
759
760
761
762
763
764
765
766
767
768
769
770
771
772
773
774
775
776
777
778
779
780
781
782
783
784
785
786
787
788
789
790
791
792
793
794
795
796
797
798
799
800
801
802
803
804
805
806
807
808
809
810
811
812
813
814
815
816
817
818
819
820
821
822
823
824
825
826
827
828
829
830
831
832
833
834
835
836
837
838
839
840
841
842
843
844
845
846
847
848
849
850
851
852
853
854
855
856
857
858
859
860
861
862
863
864
865
866
867
868
869
870
871
872
873
874
875
876
877
878
879
880
881
882
883
884
885
886
887
888
889
890
891
892
893
894
895
896
897
898
899
900
901
902
903
904
905
906
907
908
909
910
911
912
913
914
915
916
917
918
919
920
921
922
923
924
925
926
927
928
929
930
931
932
933
934
935
936
937
938
939
940
941
942
943
944
945
946
947
948
949
950
951
952
953
954
955
956
957
958
959
960
961
962
963
964
965
966
967
968
969
970
971
972
973
974
975
976
977
978
979
980
981
982
983
984
985
986
987
988
989
990
991
992
993
994
995
996
997
998
999
1000
1001
1002
1003
1004
1005
1006
1007
1008
1009
1010
1011
1012
1013
1014
1015
1016
1017
1018
1019
1020
1021
1022
1023
1024
1025
1026
1027
1028
1029
1030
1031
1032
1033
1034
1035
1036
1037
1038
1039
1040
1041
1042
1043
1044
1045
1046
1047
1048
1049
1050
1051
1052
1053
1054
1055
1056
1057
1058
1059
1060
)


446
(
15
16
17
18
19
20
21
22
23
24
25
26
27
28
29
30
31
32
33
34
35
36
37
38
39
40
41
42
43
44
45
46
47
48
49
50
51
52
53
54
55
56
57
58
59
60
61
67
73
79
85
91
97
103
109
115
121
127
133
139
145
151
157
163
169
175
181
187
193
199
205
211
217
223
229
235
241
247
253
259
265
271
277
283
289
295
301
307
313
319
325
331
337
343
349
355
361
367
373
379
385
391
397
403
409
415
421
427
433
439
445
451
457
463
469
475
481
487
493
499
505
511
517
523
529
535
541
547
553
559
565
571
577
583
589
595
601
607
613
619
625
631
637
643
649
655
661
662
663
664
665
666
667
668
669
670
671
672
673
674
675
676
677
678
679
680
681
682
683
684
685
686
687
688
689
690
691
692
693
694
695
696
697
698
699
700
701
702
703
704
705
706
707
708
709
710
711
712
713
714
715
716
717
718
719
720
721
722
723
724
725
726
727
728
729
730
731
732
733
734
735
736
737
738
739
740
741
742
743
744
745
746
747
748
749
750
751
752
753
754
755
756
757
758
759
760
761
762
763
764
765
766
767
768
769
770
771
772
773
774
775
776
777
778
779
780
781
782
783
784
785
786
787
788
789
790
791
792
793
794
795
796
797
798
799
800
801
802
803
804
805
806
807
808
809
810
811
812
813
814
815
816
817
818
819
820
821
822
823
824
825
826
827
828
829
830
831
832
833
834
835
836
837
838
839
840
841
842
843
844
845
846
847
848
849
850
851
852
853
854
855
856
857
858
859
860
861
862
863
864
865
866
867
868
869
870
871
872
873
874
875
876
877
878
879
880
881
882
883
884
885
886
887
888
889
890
891
892
893
894
895
896
897
898
899
900
901
902
903
904
905
906
907
908
909
910
911
912
913
914
915
916
917
918
919
920
921
922
923
924
925
926
927
928
929
930
931
932
933
934
935
936
937
938
939
940
941
942
943
944
945
946
947
948
949
950
951
952
953
954
955
956
957
958
959
960
)


444
(
15
16
17
18
20
21
22
23
24
25
26
27
28
29
30
31
32
33
34
35
36
37
38
39
40
41
42
43
44
45
46
47
49
50
51
52
53
54
55
56
57
58
59
60
61
67
73
79
85
91
97
103
109
115
121
127
133
139
145
151
157
163
169
175
181
187
193
199
205
211
217
223
229
235
241
247
253
259
265
271
277
283
289
295
301
307
313
319
325
331
337
343
349
355
361
367
373
379
385
391
397
403
409
415
421
427
433
439
445
451
457
463
469
475
481
487
493
499
505
511
517
523
529
535
541
547
553
559
565
571
577
583
589
595
601
607
613
619
625
631
637
643
649
655
661
662
663
664
665
666
667
668
669
670
671
672
673
674
675
676
677
678
679
680
681
682
683
684
685
686
687
688
689
690
691
692
693
694
695
696
697
698
699
700
701
702
703
704
705
706
707
708
709
710
711
712
713
714
715
716
717
718
719
720
721
722
723
724
725
726
727
728
729
730
731
732
733
734
735
736
737
738
739
740
741
742
743
744
745
746
747
748
749
750
751
752
753
754
755
756
757
758
759
760
761
762
763
764
765
766
767
768
769
770
771
772
773
774
775
776
777
778
779
780
781
782
783
784
785
786
787
788
789
790
791
792
793
794
795
796
797
798
799
800
801
802
803
804
805
806
807
808
809
810
811
812
813
814
815
816
817
818
819
820
821
822
823
824
825
826
827
828
829
830
831
832
833
834
835
836
837
838
839
840
841
842
843
844
845
846
847
848
849
850
851
852
853
854
855
856
857
858
859
860
861
862
863
864
865
866
867
868
869
870
871
872
873
874
875
876
877
878
879
880
881
882
883
884
885
886
887
888
889
890
891
892
893
894
895
896
897
898
899
900
901
902
903
904
905
906
907
908
909
910
911
912
913
914
915
916
917
918
919
920
921
922
923
924
925
926
927
928
929
930
931
932
933
934
935
936
937
938
939
940
941
942
943
944
945
946
947
948
949
950
951
952
953
954
955
956
957
958
959
960
)


444
(
15
16
17
20
21
22
23
24
25
26
27
28
29
30
31
32
33
34
35
36
37
38
39
40
41
42
43
44
45
46
47
48
49
50
51
52
53
54
55
56
57
58
59
60
61
67
73
79
85
91
97
103
109
115
121
127
133
139
145
151
157
163
169
175
181
187
193
199
205
211
217
223
229
235
241
247
253
259
265
271
277
283
289
295
301
307
313
319
325
331
337
343
349
355
361
367
373
379
385
391
397
403
409
415
421
427
433
439
445
451
457
463
469
475
481
487
493
499
505
511
517
523
529
535
541
547
553
559
565
571
577
583
589
595
601
607
613
619
625
631
637
643
649
655
661
662
663
664
665
666
667
668
669
670
671
672
673
674
675
676
677
678
679
680
681
682
683
684
685
686
687
688
689
690
691
692
693
694
695
696
697
698
699
700
701
702
703
704
705
706
707
708
709
710
711
712
713
714
715
716
717
718
719
720
721
722
723
724
725
726
727
728
729
730
731
732
733
734
735
736
737
738
739
740
741
742
743
744
745
746
747
748
749
750
751
752
753
754
755
756
757
758
759
760
761
762
763
764
765
766
767
768
769
770
771
772
773
774
775
776
777
778
779
780
781
782
783
784
785
786
787
788
789
790
791
792
793
794
795
796
797
798
799
800
801
802
803
804
805
806
807
808
809
810
811
812
813
814
815
816
817
818
819
820
821
822
823
824
825
826
827
828
829
830
831
832
833
834
835
836
837
838
839
840
841
842
843
844
845
846
847
848
849
850
851
852
853
854
855
856
857
858
859
860
861
862
863
864
865
866
867
868
869
870
871
872
873
874
875
876
877
878
879
880
881
882
883
884
885
886
887
888
889
890
891
892
893
894
895
896
897
898
899
900
901
902
903
904
905
906
907
908
909
910
911
912
913
914
915
916
917
918
919
920
921
922
923
924
925
926
927
928
929
930
931
932
933
934
935
936
937
938
939
940
941
942
943
944
945
946
947
948
949
950
951
952
953
954
955
956
957
958
959
960
)


234
(
15
20
23
24
25
26
27
28
29
30
32
33
35
36
38
39
41
42
44
45
47
48
49
50
51
52
53
54
55
56
57
58
59
60
761
762
763
764
765
766
767
768
769
770
771
772
773
774
775
776
777
778
779
780
781
782
783
784
785
786
787
788
789
790
791
792
793
794
795
796
797
798
799
800
801
802
803
804
805
806
807
808
809
810
811
812
813
814
815
816
817
818
819
820
821
822
823
824
825
826
827
828
829
830
831
832
833
834
835
836
837
838
839
840
841
842
843
844
845
846
847
848
849
850
851
852
853
854
855
856
857
858
859
860
861
862
863
864
865
866
867
868
869
870
871
872
873
874
875
876
877
878
879
880
881
882
883
884
885
886
887
888
889
890
891
892
893
894
895
896
897
898
899
900
901
902
903
904
905
906
907
908
909
910
911
912
913
914
915
916
917
918
919
920
921
922
923
924
925
926
927
928
929
930
931
932
933
934
935
936
937
938
939
940
941
942
943
944
945
946
947
948
949
950
951
952
953
954
955
956
957
958
959
960
)


444
(
15
18
19
20
21
22
23
24
25
26
27
28
29
30
31
32
33
34
35
36
37
38
39
40
41
42
43
44
45
46
47
48
49
50
51
52
53
54
55
56
57
58
59
60
66
72
78
84
90
96
102
108
114
120
126
132
138
144
150
156
162
168
174
180
186
192
198
204
210
216
222
228
234
240
246
252
258
264
270
276
282
288
294
300
306
312
318
324
330
336
342
348
354
360
366
372
378
384
390
396
402
408
414
420
426
432
438
444
450
456
462
468
474
480
486
492
498
504
510
516
522
528
534
540
546
552
558
564
570
576
582
588
594
600
606
612
618
624
630
636
642
648
654
660
761
762
763
764
765
766
767
768
769
770
771
772
773
774
775
776
777
778
779
780
781
782
783
784
785
786
787
788
789
790
791
792
793
794
795
796
797
798
799
800
801
802
803
804
805
806
807
808
809
810
811
812
813
814
815
816
817
818
819
820
821
822
823
824
825
826
827
828
829
830
831
832
833
834
835
836
837
838
839
840
841
842
843
844
845
846
847
848
849
850
851
852
853
854
855
856
857
858
859
860
861
862
863
864
865
866
867
868
869
870
871
872
873
874
875
876
877
878
879
880
881
882
883
884
885
886
887
888
889
890
891
892
893
894
895
896
897
898
899
900
901
902
903
904
905
906
907
908
909
910
911
912
913
914
915
916
917
918
919
920
921
922
923
924
925
926
927
928
929
930
931
932
933
934
935
936
937
938
939
940
941
942
943
944
945
946
947
948
949
950
951
952
953
954
955
956
957
958
959
960
961
962
963
964
965
966
967
968
969
970
971
972
973
974
975
976
977
978
979
980
981
982
983
984
985
986
987
988
989
990
991
992
993
994
995
996
997
998
999
1000
1001
1002
1003
1004
1005
1006
1007
1008
1009
1010
1011
1012
1013
1014
1015
1016
1017
1018
1019
1020
1021
1022
1023
1024
1025
1026
1027
1028
1029
1030
1031
1032
1033
1034
1035
1036
1037
1038
1039
1040
1041
1042
1043
1044
1045
1046
1047
1048
1049
1050
1051
1052
1053
1054
1055
1056
1057
1058
1059
1060
)


338
(
0
1
2
3
4
6
7
9
10
11
12
13
14
30
31
33
34
36
37
39
40
42
43
45
46
48
49
50
51
52
53
54
55
56
57
58
59
60
61
62
67
68
73
74
79
80
85
86
91
92
97
98
103
104
109
110
115
116
121
122
127
128
133
134
139
140
145
146
151
152
157
158
163
164
169
170
175
176
181
182
187
188
193
194
199
200
205
206
211
212
217
218
223
224
229
230
235
236
241
242
247
248
253
254
259
260
265
266
271
272
277
278
283
284
289
290
295
296
301
302
307
308
313
314
319
320
325
326
331
332
337
338
343
344
349
350
355
356
361
362
367
368
373
374
379
380
385
386
391
392
397
398
403
404
409
410
415
416
421
422
427
428
433
434
439
440
445
446
451
452
457
458
463
464
469
470
475
476
481
482
487
488
493
494
499
500
505
506
511
512
517
518
523
524
529
530
535
536
541
542
547
548
553
554
559
560
565
566
571
572
577
578
583
584
589
590
595
596
601
602
607
608
613
614
619
620
625
626
631
632
637
638
643
644
649
650
655
656
661
662
663
664
665
666
667
668
669
670
671
672
673
674
675
676
677
678
679
680
681
682
683
684
685
686
687
688
689
690
691
692
693
694
695
696
697
698
699
700
701
702
703
704
705
706
707
708
709
710
711
712
713
714
715
716
717
718
719
720
721
722
723
724
725
726
727
728
729
730
731
732
733
734
735
736
737
738
739
740
741
742
743
744
745
746
747
748
749
750
751
752
753
754
755
756
757
758
759
760
)


444
(
0
1
2
3
4
5
6
7
8
9
10
11
12
30
31
32
33
34
35
36
37
38
39
40
41
42
43
44
45
46
47
48
49
50
51
52
53
54
55
56
57
58
59
60
61
62
63
64
67
68
69
70
73
74
75
76
79
80
81
82
85
86
87
88
91
92
93
94
97
98
99
100
103
104
105
106
109
110
111
112
115
116
117
118
121
122
123
124
127
128
129
130
133
134
135
136
139
140
141
142
145
146
147
148
151
152
153
154
157
158
159
160
163
164
165
166
169
170
171
172
175
176
177
178
181
182
183
184
187
188
189
190
193
194
195
196
199
200
201
202
205
206
207
208
211
212
213
214
217
218
219
220
223
224
225
226
229
230
231
232
235
236
237
238
241
242
243
244
247
248
249
250
253
254
255
256
259
260
261
262
265
266
267
268
271
272
273
274
277
278
279
280
283
284
285
286
289
290
291
292
295
296
297
298
301
302
303
304
307
308
309
310
313
314
315
316
319
320
321
322
325
326
327
328
331
332
333
334
337
338
339
340
343
344
345
346
349
350
351
352
355
356
357
358
361
362
363
364
367
368
369
370
373
374
375
376
379
380
381
382
385
386
387
388
391
392
393
394
397
398
399
400
403
404
405
406
409
410
411
412
415
416
417
418
421
422
423
424
427
428
429
430
433
434
435
436
439
440
441
442
445
446
447
448
451
452
453
454
457
458
459
460
463
464
465
466
469
470
471
472
475
476
477
478
481
482
483
484
487
488
489
490
493
494
495
496
499
500
501
502
505
506
507
508
511
512
513
514
517
518
519
520
523
524
525
526
529
530
531
532
535
536
537
538
541
542
543
544
547
548
549
550
553
554
555
556
559
560
561
562
565
566
567
568
571
572
573
574
577
578
579
580
583
584
585
586
589
590
591
592
595
596
597
598
601
602
603
604
607
608
609
610
613
614
615
616
619
620
621
622
625
626
627
628
631
632
633
634
637
638
639
640
643
644
645
646
649
650
651
652
655
656
657
658
)


522
(
0
1
2
3
4
5
6
7
8
10
11
12
30
31
32
33
34
35
36
37
38
39
40
41
42
43
44
45
46
47
48
49
50
51
52
53
54
62
63
64
65
68
69
70
71
74
75
76
77
80
81
82
83
85
86
87
88
89
91
92
93
94
95
97
98
99
100
101
103
104
105
106
107
109
110
111
112
113
116
117
118
119
121
122
123
124
125
127
128
129
130
131
133
134
135
136
137
139
140
141
142
143
145
146
147
148
149
151
152
153
154
155
157
158
159
160
161
163
164
165
166
167
169
170
171
172
173
175
176
177
178
179
181
182
183
184
185
187
188
189
190
191
193
194
195
196
197
199
200
201
202
203
205
206
207
208
209
211
212
213
214
215
217
218
219
220
221
223
224
225
226
227
229
230
231
232
233
235
236
237
238
239
241
242
243
244
245
248
249
250
251
253
254
255
256
257
260
261
262
263