/*--------------------------------*- C++ -*----------------------------------*\
| =========                 |                                                 |
| \\      /  F ield         | OpenFOAM: The Open Source CFD Toolbox           |
|  \\    /   O peration     | Version:  3.0.1                                 |
|   \\  /    A nd           | Web:      www.OpenFOAM.org                      |
|    \\/     M anipulation  |                                                 |
\*---------------------------------------------------------------------------*/
FoamFile
{
    version     2.0;
    format      ascii;
    class       dictionary;
    object      viewFactorsDict;
}
// * * * * * * * * * * * * * * * * * * * * * * * * * * * * * * * * * * * * * //

writeViewFactorMatrix     true;
writeFacesAgglomeration   true;
writePatchViewFactors     true;

Outterwall
{
    nFacesInCoarsestLevel     20;
    featureAngle              36;
}

"fluid_to_.*"
{
    nFacesInCoarsestLevel     2000;
    featureAngle              36;
}

Inlet
{
    nFacesInCoarsestLevel     20;
    featureAngle              0;
}

Outlet
{
    nFacesInCoarsestLevel     20;
    featureAngle              0;
}

// ************************************************************************* //
