FoamFile
{
    version     2.0;
    format      ascii;
    class       dictionary;
    object      blockMeshDict;
}
convertToMeters 0.001;

vertices
(
    (3.196954309061945 -0.1395820395690752 -1500) //0
    (112.89244903874993 -4.928990772282968 -1500) //1
    (112.89244903874993 4.928990772282968 -1500) //2
    (3.196954309061945 0.1395820395690752 -1500) //3
    (3.196954309061945 -0.1395820395690752 0) //4
    (112.89244903874993 -4.928990772282968 0) //5
    (112.89244903874993 4.928990772282968 0) //6
    (3.196954309061945 0.1395820395690752 0) //7
);

blocks
(
  hex ( 0 1 2 3 4 5 6 7 ) (25 1 100) simpleGrading (107 1 1)
);

edges
(
    arc 4 7 (3.2 0.0 0)
    arc 5 6 (113.0 0.0 0)
    arc 0 3 (3.2 0.0 -1500)
    arc 1 2 (113.0 0.0 -1500)
);

boundary
(
    Outterwall { type patch; faces ((6 5 1 2));}
    symmetryleft1 { type empty; faces ((5 4 0 1));}
    symmetryrigt1 { type empty; faces ((7 6 2 3));}
    Outlet { type patch; faces ((4 5 6 7));}
    Inlet { type patch; faces ((3 2 1 0));}
    fluid_to_cilcen { type patch; faces ((7 4 0 3));}
);

mergePatchPairs
(
);
