/*--------------------------------*- C++ -*----------------------------------*\
| =========                 |                                                 |
| \\      /  F ield         | OpenFOAM: The Open Source CFD Toolbox           |
|  \\    /   O peration     | Version:  3.0.1                                 |
|   \\  /    A nd           | Web:      www.OpenFOAM.org                      |
|    \\/     M anipulation  |                                                 |
\*---------------------------------------------------------------------------*/
FoamFile
{
    version     2.0;
    format      ascii;
    class       dictionary;
    location    "system";
    object      fvSolution;
}
// * * * * * * * * * * * * * * * * * * * * * * * * * * * * * * * * * * * * * //

solvers
{
    "(p_rgh|G)"
    {
        solver          PCG;
        preconditioner  DIC;
        tolerance       1e-09;
        relTol          0.0001;
    }

    "(U|h|k|epsilon)"
    {
        solver          PBiCG;
        preconditioner  DILU;
        tolerance       1e-09;
        relTol          0.0001;
    }

    Ii
    {
        solver              GAMG;
        tolerance           1e-4;
        relTol              0;
        smoother            symGaussSeidel;
        cacheAgglomeration  true;
        nCellsInCoarsestLevel   10;
        agglomerator        faceAreaPair;
        mergeLevels         1;
        maxIter             5;
        nPreSweeps          0;
        nPostSweeps         1;
    }

}

SIMPLE
{
    nNonOrthogonalCorrectors 0;
    pRefCell        0;
    pRefValue       101325;

    residualControl
    {
        p_rgh           1e-5;
        Uz              1e-5;
        h               1e-5;
      //  G               1e-5;
    }
}

relaxationFactors
{
    fields
    {
        rho             1.0;
        p_rgh           0.7;
    }
    equations
    {
        U               0.2;
        h               0.2;
        "(k|epsilon|R)" 0.5;
        G               0.2;
    }
}


// ************************************************************************* //
