/*--------------------------------*- C++ -*----------------------------------*\
| =========                 |                                                 |
| \\      /  F ield         | OpenFOAM: The Open Source CFD Toolbox           |
|  \\    /   O peration     | Version:  3.0.1                                 |
|   \\  /    A nd           | Web:      www.OpenFOAM.org                      |
|    \\/     M anipulation  |                                                 |
\*---------------------------------------------------------------------------*/
FoamFile
{
    version     2.0;
    format      ascii;
    class       dictionary;
    object      blockMeshDict;
}
// * * * * * * * * * * * * * * * * * * * * * * * * * * * * * * * * * * * * * //

convertToMeters 0.001;

vertices
(   
    (3.2    0     0)   //0
    (113    0     0)   //1 
    (-113   0     0)   //2  
    (-3.2   0     0)   //3 
    (3.2    0  1500)   //4
    (113    0  1500)   //5 
    (-113   0  1500)   //6  
    (-3.2   0  1500)   //7 

    (3.2    0     0)   //8
    (113    0     0)   //9 
    (-113   0     0)   //10  
    (-3.2   0     0)   //11 
    (3.2    0  1500)   //12
    (113    0  1500)   //13 
    (-113   0  1500)   //14  
    (-3.2   0  1500)   //15 
);
 
blocks
(
    hex (0  1  2 3  4  5  6  7) (50 10 100) simpleGrading (107   1 1)
    hex (8 11 10 9 12 15 14 13) (10 50 100) simpleGrading (  1 107 1)
);
 
edges
(
    arc 0 3 (0    3.2    0)
    arc 1 2 (0  112.8    0)  
    arc 4 7 (0    3.2 1500)  
    arc 5 6 (0  112.8 1500)

    arc 8  11 (0   -3.2    0)
    arc 9  10 (0 -112.8    0)
    arc 12 15 (0   -3.2 1500)    
    arc 13 14 (0 -112.8 1500)  
);
 
boundary
(
    Inlet            { type patch; faces ((0 3 2 1)(9 10 11 8));  }
    Outlet           { type patch; faces ((4 5 6 7)(12 15 14 13));}
    Outterwall       { type wall;  faces ((1 2 6 5)(9 13 14 10)); }
    fluid_to_cilcen  { type wall;  faces ((0 4 7 3)(8 11 15 12)); }

    patch1           { type patch; faces (( 0  1  5  4)); }
    patch2           { type patch; faces (( 8 12 13  9)); }
    patch3           { type patch; faces (( 3  7  6  2)); }
    patch4           { type patch; faces ((10 14 15 11)); }
);
 
mergePatchPairs
(
    ( patch1 patch2 )
    ( patch3 patch4 )
);