/*--------------------------------*- C++ -*----------------------------------*\
| =========                 |                                                 |
| \\      /  F ield         | OpenFOAM: The Open Source CFD Toolbox           |
|  \\    /   O peration     | Version:  4.0                                   |
|   \\  /    A nd           | Web:      www.OpenFOAM.org                      |
|    \\/     M anipulation  |                                                 |
\*---------------------------------------------------------------------------*/
FoamFile
{
    version     2.0;
    format      ascii;
    class       polyBoundaryMesh;
    location    "constant/fluid/polyMesh";
    object      boundary;
}
// * * * * * * * * * * * * * * * * * * * * * * * * * * * * * * * * * * * * * //

7
(
    Outterwall
    {
        type            patch;
        nFaces          360;
        startFace       41040;
    }
    symmetryleft
    {
        type            symmetry;
        inGroups        1(symmetry);
        nFaces          960;
        startFace       41400;
    }
    symmetryrigt
    {
        type            symmetry;
        inGroups        1(symmetry);
        nFaces          720;
        startFace       42360;
    }
    Outlet
    {
        type            patch;
        nFaces          720;
        startFace       43080;
    }
    Inlet
    {
        type            patch;
        nFaces          720;
        startFace       43800;
    }
    fluid_to_ciltop
    {
        type            mappedWall;
        inGroups        1(wall);
        nFaces          720;
        startFace       44520;
        sampleMode      nearestPatchFace;
        sampleRegion    ciltop;
        samplePatch     ciltop_to_fluid;
    }
    fluid_to_cilcen
    {
        type            mappedWall;
        inGroups        1(wall);
        nFaces          120;
        startFace       45240;
        sampleMode      nearestPatchFace;
        sampleRegion    cilcen;
        samplePatch     cilcen_to_fluid;
    }
)

// ************************************************************************* //
