FoamFile { version 2.0; format ascii; class volScalarField; object p; }

dimensions      [1 -1 -2 0 0 0 0];
internalField   uniform 101325;
boundaryField
{
    "cil.*"       { type fixedValue; value uniform 101325;}
    ".*_to_fluid" { type fixedValue; value uniform 101325;}   
    "symmetry.*"  { type symmetry; }  
}