/*--------------------------------*- C++ -*----------------------------------*\
| =========                 |                                                 |
| \\      /  F ield         | OpenFOAM: The Open Source CFD Toolbox           |
|  \\    /   O peration     | Version:  3.0.1                                 |
|   \\  /    A nd           | Web:      www.OpenFOAM.org                      |
|    \\/     M anipulation  |                                                 |
\*---------------------------------------------------------------------------*/
FoamFile
{
    version     2.0;
    format      ascii;
    class       volScalarField;
    object      T;
}
// * * * * * * * * * * * * * * * * * * * * * * * * * * * * * * * * * * * * * //

dimensions      [0 0 0 1 0 0 0];
internalField   uniform 360;

boundaryField
{
    "cilcentop"         { type zeroGradient; }
    "cilcenbot"         { type zeroGradient; }
    ".*Wedge"           { type wedge; }

    ".*_to_fluid"                  
    {
        type            compressible::turbulentTemperatureRadCoupledMixed;
        Tnbr            T;
        kappa           solidThermo;
        QrNbr           Qr;
        Qr              none;
        kappaName       none;
        value           uniform 293.7;
    }
}