/*--------------------------------*- C++ -*----------------------------------*\
| =========                 |                                                 |
| \\      /  F ield         | OpenFOAM: The Open Source CFD Toolbox           |
|  \\    /   O peration     | Version:  3.0.1                                 |
|   \\  /    A nd           | Web:      www.OpenFOAM.org                      |
|    \\/     M anipulation  |                                                 |
\*---------------------------------------------------------------------------*/
FoamFile
{
    version     2.0;
    format      ascii;
    class       dictionary;
    location    "system";
    object      fvSchemes;
}
// * * * * * * * * * * * * * * * * * * * * * * * * * * * * * * * * * * * * * //

ddtSchemes           { default steadyState; }

interpolationSchemes { default linear; }

gradSchemes          { default Gauss linear; } //upwind phi; }

snGradSchemes        { default orthogonal; }

laplacianSchemes     { default Gauss linear orthogonal; }

divSchemes           
{ 
    default bounded Gauss upwind phi;
    div(((rho*nuEff)*dev2(T(grad(U))))) Gauss linear;
}





// ************************************************************************* //
