/*--------------------------------*- C++ -*----------------------------------*\
| =========                 |                                                 |
| \\      /  F ield         | OpenFOAM: The Open Source CFD Toolbox           |
|  \\    /   O peration     | Version:  3.0.1                                 |
|   \\  /    A nd           | Web:      www.OpenFOAM.org                      |
|    \\/     M anipulation  |                                                 |
\*---------------------------------------------------------------------------*/
FoamFile
{
    version     2.0;
    format      ascii;
    class       polyBoundaryMesh;
    location    "constant/polyMesh";
    object      boundary;
}
// * * * * * * * * * * * * * * * * * * * * * * * * * * * * * * * * * * * * * //

6
(
    Outterwall
    {
        type            patch;
        nFaces          100;
        startFace       4875;
    }
    symmetryleft1
    {
        type            empty;
        inGroups        1(empty);
        nFaces          2500;
        startFace       4975;
    }
    symmetryrigt1
    {
        type            empty;
        inGroups        1(empty);
        nFaces          2500;
        startFace       7475;
    }
    Outlet
    {
        type            patch;
        nFaces          25;
        startFace       9975;
    }
    Inlet
    {
        type            patch;
        nFaces          25;
        startFace       10000;
    }
    fluid_to_cilcen
    {
        type            patch;
        nFaces          100;
        startFace       10025;
    }
)

// ************************************************************************* //
