/*--------------------------------*- C++ -*----------------------------------*\
| =========                 |                                                 |
| \\      /  F ield         | OpenFOAM: The Open Source CFD Toolbox           |
|  \\    /   O peration     | Version:  3.0.1                                 |
|   \\  /    A nd           | Web:      www.OpenFOAM.org                      |
|    \\/     M anipulation  |                                                 |
\*---------------------------------------------------------------------------*/
FoamFile
{
    version     2.0;
    format      ascii;
    class       dictionary;
    object      fvSchemes;
}

ddtSchemes           { default steadyState;      }
interpolationSchemes { default linear;       }
gradSchemes          { default Gauss linear; }
laplacianSchemes     { default Gauss linear orthogonal; } //laplacian(alpha,h) Gauss linear uncorrected; }
divSchemes           { default bounded Gauss linear; }
