/*--------------------------------*- C++ -*----------------------------------*\
| =========                 |                                                 |
| \\      /  F ield         | OpenFOAM: The Open Source CFD Toolbox           |
|  \\    /   O peration     | Version:  4.0                                   |
|   \\  /    A nd           | Web:      www.OpenFOAM.org                      |
|    \\/     M anipulation  |                                                 |
\*---------------------------------------------------------------------------*/
FoamFile
{
    version     2.0;
    format      ascii;
    class       polyBoundaryMesh;
    location    "constant/polyMesh";
    object      boundary;
}
// * * * * * * * * * * * * * * * * * * * * * * * * * * * * * * * * * * * * * //

6
(
    LeftWedge
    {
        type            wedge;
        inGroups        1(wedge);
        nFaces          1;
        startFace       0;
    }
    RightWedge
    {
        type            wedge;
        inGroups        1(wedge);
        nFaces          1;
        startFace       1;
    }
    Inlet
    {
        type            patch;
        nFaces          1;
        startFace       2;
    }
    Outlet
    {
        type            patch;
        nFaces          1;
        startFace       3;
    }
    Outterwall
    {
        type            wall;
        inGroups        1(wall);
        nFaces          1;
        startFace       4;
    }
    fluid_to_cencil
    {
        type            wall;
        inGroups        1(wall);
        nFaces          1;
        startFace       5;
    }
)

// ************************************************************************* //
