/*--------------------------------*- C++ -*----------------------------------*\
| =========                 |                                                 |
| \\      /  F ield         | OpenFOAM: The Open Source CFD Toolbox           |
|  \\    /   O peration     | Version:  4.0                                   |
|   \\  /    A nd           | Web:      www.OpenFOAM.org                      |
|    \\/     M anipulation  |                                                 |
\*---------------------------------------------------------------------------*/
FoamFile
{
    version     2.0;
    format      ascii;
    class       polyBoundaryMesh;
    location    "constant/cilcen/polyMesh";
    object      boundary;
}
// * * * * * * * * * * * * * * * * * * * * * * * * * * * * * * * * * * * * * //

5
(
    cilcentop
    {
        type            patch;
        nFaces          10;
        startFace       1890;
    }
    cilcenbot
    {
        type            patch;
        nFaces          10;
        startFace       1900;
    }
    leftcenWedge
    {
        type            symmetry;
        inGroups        1(symmetry);
        nFaces          1000;
        startFace       1910;
    }
    rigtcenWedge
    {
        type            symmetry;
        inGroups        1(symmetry);
        nFaces          1000;
        startFace       2910;
    }
    cilcen_to_fluid
    {
        type            mappedWall;
        inGroups        1(wall);
        nFaces          100;
        startFace       3910;
        sampleMode      nearestPatchFace;
        sampleRegion    fluid;
        samplePatch     fluid_to_cilcen;
    }
)

// ************************************************************************* //
