/*--------------------------------*- C++ -*----------------------------------*\
| =========                 |                                                 |
| \\      /  F ield         | OpenFOAM: The Open Source CFD Toolbox           |
|  \\    /   O peration     | Version:  3.0.1                                 |
|   \\  /    A nd           | Web:      www.OpenFOAM.org                      |
|    \\/     M anipulation  |                                                 |
\*---------------------------------------------------------------------------*/
FoamFile
{
    version     2.0;
    format      ascii;
    class       dictionary;
    location    "system";
    object      fvSchemes;
}
// * * * * * * * * * * * * * * * * * * * * * * * * * * * * * * * * * * * * * //

ddtSchemes           { default steadyState; }

gradSchemes          { default Gauss upwind phi;} //linear; }

interpolationSchemes { default linearUpwind phi Gauss upwind phi; } 

snGradSchemes        { default corrected; }

laplacianSchemes     { default Gauss linear  corrected; }

divSchemes           
{ 
    default bounded Gauss upwind; //linearUpwind phi;
    div(((rho*nuEff)*dev2(T(grad(U))))) Gauss linear;
}

// ************************************************************************* //
