/*--------------------------------*- C++ -*----------------------------------*\
| =========                 |                                                 |
| \\      /  F ield         | OpenFOAM: The Open Source CFD Toolbox           |
|  \\    /   O peration     | Version:  4.0                                   |
|   \\  /    A nd           | Web:      www.OpenFOAM.org                      |
|    \\/     M anipulation  |                                                 |
\*---------------------------------------------------------------------------*/
FoamFile
{
    version     2.0;
    format      ascii;
    class       polyBoundaryMesh;
    location    "constant/polyMesh";
    object      boundary;
}
// * * * * * * * * * * * * * * * * * * * * * * * * * * * * * * * * * * * * * //

13
(
    Outterwall
    {
        type            patch;
        nFaces          360;
        startFace       53230;
    }
    ciltoptop
    {
        type            patch;
        nFaces          180;
        startFace       53590;
    }
    cilbottop
    {
        type            patch;
        nFaces          180;
        startFace       53770;
    }
    ciltopcen
    {
        type            patch;
        nFaces          30;
        startFace       53950;
    }
    cilbotcen
    {
        type            patch;
        nFaces          30;
        startFace       53980;
    }
    symmetryleft
    {
        type            symmetry;
        inGroups        1(symmetry);
        nFaces          960;
        startFace       54010;
    }
    symmetryrigt
    {
        type            symmetry;
        inGroups        1(symmetry);
        nFaces          720;
        startFace       54970;
    }
    symmetrytop1
    {
        type            symmetry;
        inGroups        1(symmetry);
        nFaces          200;
        startFace       55690;
    }
    symmetrycen1
    {
        type            symmetry;
        inGroups        1(symmetry);
        nFaces          100;
        startFace       55890;
    }
    symmetrycen2
    {
        type            symmetry;
        inGroups        1(symmetry);
        nFaces          100;
        startFace       55990;
    }
    Outlet
    {
        type            patch;
        nFaces          720;
        startFace       56090;
    }
    Inlet
    {
        type            patch;
        nFaces          720;
        startFace       56810;
    }
    defaultFaces
    {
        type            empty;
        inGroups        1(empty);
        nFaces          0;
        startFace       57530;
    }
)

// ************************************************************************* //
