/*--------------------------------*- C++ -*----------------------------------*\
| =========                 |                                                 |
| \\      /  F ield         | OpenFOAM: The Open Source CFD Toolbox           |
|  \\    /   O peration     | Version:  3.0.1                                 |
|   \\  /    A nd           | Web:      www.OpenFOAM.org                      |
|    \\/     M anipulation  |                                                 |
\*---------------------------------------------------------------------------*/
FoamFile
{
    version     2.0;
    format      ascii;
    class       dictionary;
    object      blockMeshDict;
}
// * * * * * * * * * * * * * * * * * * * * * * * * * * * * * * * * * * * * * //

convertToMeters 0.001;


vertices
(
    (0 0 0) //0
    (2.9333175157233353 -1.21501989775916 0) //1
    (2.9333175157233353 1.21501989775916 0) //2
    (6.628835645768482 -2.745753627219519 0) //3
    (7.175 0 0) //4
    (6.628835645768482 2.745753627219519 0) //5
    (38.11003071609058 -15.785691585059954 0) //6
    (38.11003071609058 15.785691585059954 0) //7
    (32.56675352102286 -13.489590990869415 0) //8
    (32.56675352102286 13.489590990869415 0) //9
    (21.00255341257908 -8.699542467955586 0) //10
    (19.284255794614904 -4.55120505447309 0) //11
    (15.13591838113241 -6.269502672437266 0) //12
    (24.698071542624227 -10.230276197415945 0) //13
    (20.814989524075262 -0.8556869244279444 0) //14
    (11.440400251087262 -4.7387689429769075 0) //15
    (23.135337399147748 9.582970520804484 0) //16
    (21.417039781183572 5.434633107321989 0) //17
    (17.268702367701078 7.152930725286164 0) //18
    (13.57318423765593 5.622196995825805 0) //19
    (22.94777351064393 1.7391149772768424 0) //20
    (26.830855529192895 11.113704250264844 0) //21
    (0 0 -876) //22
    (2.9333175157233353 -1.21501989775916 -876) //23
    (2.9333175157233353 1.21501989775916 -876) //24
    (6.628835645768482 -2.745753627219519 -876) //25
    (6.628835645768482 2.745753627219519 -876) //26
    (38.11003071609058 15.785691585059954 -876) //27
    (32.56675352102286 13.489590990869415 -876) //28
    (32.56675352102286 -13.489590990869415 -876) //29
    (38.11003071609058 -15.785691585059954 -876) //30
    (18.069235896855744 -7.484522570196426 -876) //31
    (19.284255794614904 -4.55120505447309 -876) //32
    (15.13591838113241 -6.269502672437266 -876) //33
    (18.069235896855744 -7.484522570196426 0) //34
    (21.00255341257908 -8.699542467955586 -876) //35
    (24.698071542624227 -10.230276197415945 -876) //36
    (20.814989524075262 -0.8556869244279444 -876) //37
    (11.440400251087262 -4.7387689429769075 -876) //38
    (20.202019883424413 8.367950623045324 -876) //39
    (21.417039781183572 5.434633107321989 -876) //40
    (23.135337399147748 9.582970520804484 -876) //41
    (20.202019883424413 8.367950623045324 0) //42
    (17.268702367701078 7.152930725286164 -876) //43
    (22.94777351064393 1.7391149772768424 -876) //44
    (26.830855529192895 11.113704250264844 -876) //45
    (13.57318423765593 5.622196995825805 -876) //46
    (7.175 0 -876) //47
);

blocks
(
  hex ( 22 23 24 22 0 1 2 0 )  ( 3 9 100)  simpleGrading (0.02 1 1)
  hex ( 23 25 26 24 1 3 5 2 )  ( 20  9 100)  simpleGrading ( 12 1 1)
  hex ( 27 28 29 30 7 9 8 6 )  ( 20  9 100)  simpleGrading ( 12 1 1)
  hex ( 31 32 33 31 34 11 12 34 )  ( 3 9 100)  simpleGrading (0.02 1 1)
  hex ( 31 35 32 31 34 10 11 34 )  ( 3 9 100)  simpleGrading (0.02 1 1)
  hex ( 35 36 37 32 10 13 14 11 )  ( 20  9 100)  simpleGrading ( 12 1 1)
  hex ( 32 37 38 33 11 14 15 12 )  ( 20  9 100)  simpleGrading ( 12 1 1)
  hex ( 39 40 41 39 42 17 16 42 )  ( 3 9 100)  simpleGrading (0.02 1 1)
  hex ( 39 43 40 39 42 18 17 42 )  ( 3 9 100)  simpleGrading (0.02 1 1)
  hex ( 40 44 45 41 17 20 21 16 )  ( 20  9 100)  simpleGrading ( 12 1 1)
  hex ( 43 46 44 40 18 19 20 17 )  ( 20  9 100)  simpleGrading ( 12 1 1)
);

edges
(
    arc 1 2 (3.175 0.0 0)
    arc 3 4 (7.037134386893176 -1.39977306046572 0)
    arc 4 5 (7.037134386893177 1.3997730604657201 0)
    arc 3 5 (7.174999999999999 0.0 0)
    arc 6 7 (41.25 0.0 0)
    arc 8 9 (35.25 0.0 0)
    arc 10 11 (21.00255341257908 -6.269502672437266 0)
    arc 11 12 (16.854215999096585 -4.55120505447309 0)
    arc 13 14 (24.698071542624227 -4.738768942976908 0)
    arc 14 15 (15.323482269636227 -0.8556869244279444 0)
    arc 16 17 (23.135337399147748 7.152930725286164 0)
    arc 17 18 (18.986999985665253 5.43463310732199 0)
    arc 19 20 (17.456266256204895 1.7391149772768415 0)
    arc 20 21 (26.830855529192895 5.622196995825807 0)
    arc 23 24 (3.175 0.0 -876)
    arc 25 47 (7.037134386893176 -1.39977306046572 -876)
    arc 47 26 (7.037134386893177 1.3997730604657201 -876)
    arc 25 26 (7.174999999999999 0.0 -876)
    arc 30 27 (41.25 0.0 -876)
    arc 29 28 (35.25 0.0 -876)
    arc 35 32 (21.00255341257908 -6.269502672437266 -876)
    arc 32 33 (16.854215999096585 -4.55120505447309 -876)
    arc 36 37 (24.698071542624227 -4.738768942976908 -876)
    arc 37 38 (15.323482269636227 -0.8556869244279444 -876)
    arc 41 40 (23.135337399147748 7.152930725286164 -876)
    arc 40 43 (18.986999985665253 5.43463310732199 -876)
    arc 46 44 (17.456266256204895 1.7391149772768415 -876)
    arc 44 45 (26.830855529192895 5.622196995825807 -876)
);
 
boundary
(
    /*
    CHTLeftWedge  {     type wedge; faces ((0 1 2 3));}
    CHTRightWedge {     type wedge; faces ((0 4 5 3));}
    
    LeftWedge     {     type wedge; faces ((1 6 8 2));}
    RightWedge    {     type wedge; faces ((4 5 9 7));}

    Inlet   {           type patch; faces ((1 4 7 6));}
    Outlet  {           type patch; faces ((2 8 9 5));}

    axis    {           type empty; faces ((0 3 3 0));}

    Outterwall    {     type wall;  faces ((6 7 9 8));}
*/);
 
mergePatchPairs();