/*--------------------------------*- C++ -*----------------------------------*\
| =========                 |                                                 |
| \\      /  F ield         | OpenFOAM: The Open Source CFD Toolbox           |
|  \\    /   O peration     | Version:  3.0.1                                 |
|   \\  /    A nd           | Web:      www.OpenFOAM.org                      |
|    \\/     M anipulation  |                                                 |
\*---------------------------------------------------------------------------*/
FoamFile
{
    version     2.0;
    format      ascii;
    class       dictionary;
    object      blockMeshDict;
}
// * * * * * * * * * * * * * * * * * * * * * * * * * * * * * * * * * * * * * //

convertToMeters 0.001;

vertices
(   

    // Center Cylinder (R = 3.175 mm)
    (0 0 -876)                               //0
    (2.93331751572 -1.21501989776 -876)      //1  
    (2.93331751572  1.21501989776 -876)      //2 
    (0 0 0)                                  //3   
    (2.93331751572 -1.21501989776  0 )       //4
    (2.93331751572  1.21501989776  0 )       //5



    // Center Cylinder Boundary Layer ( d = 6 mm )
    (7.39103626009 -3.06146745892 -876)      //6  
    (7.39103626009  3.06146745892 -876)      //7
    (7.39103626009 -3.06146745892  0)        //8 
    (7.39103626009  3.06146745892  0)        //9

    // Outter cylinder Boundary Layer ( d = 6 mm )
    (36.0313017679 -14.9246538622 -876)      //10  
    (36.0313017679  14.9246538622 -876)      //11
    (36.0313017679 -14.9246538622  0)        //12 
    (36.0313017679  14.9246538622  0)        //13

    // Outter Cylinder (R = 41.25 mm)
    (38.1100307161 -15.785691585 -876)       //14  
    (38.1100307161  15.785691585 -876)       //15
    (38.1100307161 -15.785691585  0)         //16 
    (38.1100307161  15.785691585  0)         //17

    // Top Cylinder (R = 3.175 mm)
    (15.1359183811  -6.26950267244 -876)     //18
    (18.0692358969  -7.4845225702  -876)     //19
    (19.2842557947  -4.55120505448 -876)     //20
    (21.0025534126  -8.69954246796 -876)     //21
    (15.1359183811  -6.26950267244 0)        //22
    (18.0692358969  -7.4845225702  0)        //23
    (19.2842557947  -4.55120505448 0)        //24
    (21.0025534126  -8.69954246796 0)        //25   

    // Boundary Layer Top Cylinder  ( d = 5.825 mm )
    (9.75432010425 -4.04037167891 -876)      //26
    (26.3841516895 -10.9286734615 -876)      //27
    (23.003144       0.213727     -876 )     //28
    (9.75432010425 -4.04037167891 0)         //29
    (26.3841516895 -10.9286734615 0)         //30
    (23.003144       0.213727     0)         //31

    // Diag Cylinder (R = 3.175 mm)
    (24.725871  10.24179 -876)               //30
    (27.659189  11.45681 -876)               //31
    (30.592506  12.67183 -876)               //32
    (28.874209  8.523494 -876)               //33
    (24.725871  10.24179    0)               //34
    (27.659189  11.45681    0)               //35
    (30.592506  12.67183    0)               //36
    (28.874209  8.523494    0)               //37

    // Boundary Layer Top Cylinder  ( d = 5.825 mm )
    (19.344273 8.01266 -876)      //38
    (35.974105 14.90096 -876)      //39
    (19.344273  8.01266 0)         //49
    (35.974105 14.90096 0)         //41

); 
 
blocks
(   

    hex ( 0  1  2  0  3  4  5  3) ( 2  9 100) simpleGrading ( 1 1 1)   // Center cil
    hex ( 1  6  7  2  4  8  9  5) (15  9 100) simpleGrading (12 1 1)   // Boundary layer center cil
    //hex ( 6 10 11  7  8 12 13  9) (10 9 100) simpleGrading ( 1 1 1)   // Main MEsh
    hex (10 14 15 11 12 16 17 13) (10   9 100) simpleGrading (0.08 1 1) // Boundary layer outter cil
    hex (19 20 18 19 23 24 22 23) ( 2   9 100) simpleGrading ( 1 1 1)   // 1/2 vert cil
    hex (19 21 20 19 23 25 24 23) ( 2   9 100) simpleGrading ( 1 1 1)   // 1/2 vert cil
    hex (18 26 28 20 22 29 31 24) (15  18 100) simpleGrading ( 12 1 1)  // 1/2 boundary vert cil

    //hex (31 30 33 31 35 34 37 35) ( 2   9 100) simpleGrading ( 1 1 1)   // 1/2  diag cil
    //hex (31 33 32 31 35 37 36 35) ( 2   9 100) simpleGrading ( 1 1 1)   // 1/2  diag cil
    //hex (30 38 39 32 34 40 41 36) (15  18 100) simpleGrading ( 12 1 1)  // boundary diag cil
);
 
edges
(
    arc  1  2 (3.175  0 -876)
    arc  4  5 (3.175  0    0)
    arc  6  7 (8      0 -876)
    arc  8  9 (8      0    0)
    arc 10 11 (39     0 -876)
    arc 12 13 (39     0    0)
    arc 14 15 (41.25  0 -876)
    arc 16 17 (41.25  0    0)
    arc 18 20 (18.0692358969 -4.3095225702  -876)
    arc 22 24 (18.0692358969 -4.3095225702     0)
    arc 20 21 (21.2442358969 -7.4845225702  -876)
    arc 24 25 (21.2442358969 -7.4845225702     0)
    arc 18 21 (19.2842557947 -4.55120505448 -876)
    arc 22 25 (19.2842557947 -4.55120505448    0)
    arc 27 26 (18.0692358969  1.5154774298  -876)
    arc 29 28 (18.0692358969  1.5154774298     0)
    arc 30 33 (27.659189 8.281811 -876)
    arc 34 37 (27.659189 8.281811 0 )
    arc 33 32 (30.834189 11.45681 -876)
    arc 37 36 (30.834189 11.45681 0 )
    arc 30 32 (27.659189 8.281811 -876)
    arc 34 36 (30.834189 11.45681 0 )
    arc 38 39 (27.659189 2.456811 -876)
    arc 40 41 (27.659189 2.456811 0 )
);
 
boundary
(
    /*
    CHTLeftWedge  {     type wedge; faces ((0 1 2 3));}
    CHTRightWedge {     type wedge; faces ((0 4 5 3));}
    
    LeftWedge     {     type wedge; faces ((1 6 8 2));}
    RightWedge    {     type wedge; faces ((4 5 9 7));}

    Inlet   {           type patch; faces ((1 4 7 6));}
    Outlet  {           type patch; faces ((2 8 9 5));}

    axis    {           type empty; faces ((0 3 3 0));}

    Outterwall    {     type wall;  faces ((6 7 9 8));}
*/);
 
mergePatchPairs();