/*--------------------------------*- C++ -*----------------------------------*\
| =========                 |                                                 |
| \\      /  F ield         | OpenFOAM: The Open Source CFD Toolbox           |
|  \\    /   O peration     | Version:  4.0                                   |
|   \\  /    A nd           | Web:      www.OpenFOAM.org                      |
|    \\/     M anipulation  |                                                 |
\*---------------------------------------------------------------------------*/
FoamFile
{
    version     2.0;
    format      ascii;
    class       polyBoundaryMesh;
    location    "constant/polyMesh";
    object      boundary;
}
// * * * * * * * * * * * * * * * * * * * * * * * * * * * * * * * * * * * * * //

7
(
    Outterwall
    {
        type            patch;
        nFaces          1800;
        startFace       190340;
    }
    symmetryleft
    {
        type            symmetryPlane;
        inGroups        1(symmetryPlane);
        nFaces          4200;
        startFace       192140;
    }
    symmetryrigt
    {
        type            symmetryPlane;
        inGroups        1(symmetryPlane);
        nFaces          3800;
        startFace       196340;
    }
    Outlet
    {
        type            patch;
        nFaces          660;
        startFace       200140;
    }
    Inlet
    {
        type            patch;
        nFaces          660;
        startFace       200800;
    }
    fluid_to_cilcen
    {
        type            patch;
        nFaces          600;
        startFace       201460;
    }
    fluid_to_ciltop
    {
        type            patch;
        nFaces          3600;
        startFace       202060;
    }
)

// ************************************************************************* //
