/*--------------------------------*- C++ -*----------------------------------*\
| =========                 |                                                 |
| \\      /  F ield         | OpenFOAM: The Open Source CFD Toolbox           |
|  \\    /   O peration     | Version:  4.0                                   |
|   \\  /    A nd           | Web:      www.OpenFOAM.org                      |
|    \\/     M anipulation  |                                                 |
\*---------------------------------------------------------------------------*/
FoamFile
{
    version     2.0;
    format      binary;
    class       polyBoundaryMesh;
    location    "constant/polyMesh";
    object      boundary;
}
// * * * * * * * * * * * * * * * * * * * * * * * * * * * * * * * * * * * * * //

7
(
    Outterwall
    {
        type            patch;
        nFaces          1800;
        startFace       541346;
    }
    symmetryleft
    {
        type            symmetryPlane;
        inGroups        1(symmetryPlane);
        nFaces          12100;
        startFace       543146;
    }
    symmetryrigt
    {
        type            symmetryPlane;
        inGroups        1(symmetryPlane);
        nFaces          7900;
        startFace       555246;
    }
    Outlet
    {
        type            patch;
        nFaces          1854;
        startFace       563146;
    }
    Inlet
    {
        type            patch;
        nFaces          1854;
        startFace       565000;
    }
    fluid_to_cilcen
    {
        type            patch;
        nFaces          600;
        startFace       566854;
    }
    fluid_to_ciltop
    {
        type            patch;
        nFaces          3600;
        startFace       567454;
    }
)

// ************************************************************************* //
