/*--------------------------------*- C++ -*----------------------------------*\
| =========                 |                                                 |
| \\      /  F ield         | OpenFOAM: The Open Source CFD Toolbox           |
|  \\    /   O peration     | Version:  4.0                                   |
|   \\  /    A nd           | Web:      www.OpenFOAM.org                      |
|    \\/     M anipulation  |                                                 |
\*---------------------------------------------------------------------------*/
FoamFile
{
    version     2.0;
    format      ascii;
    class       polyBoundaryMesh;
    location    "constant/polyMesh";
    object      boundary;
}
// * * * * * * * * * * * * * * * * * * * * * * * * * * * * * * * * * * * * * //

7
(
    Outterwall
    {
        type            patch;
        nFaces          1800;
        startFace       261000;
    }
    symmetryleft
    {
        type            symmetry;
        inGroups        1(symmetry);
        nFaces          6000;
        startFace       262800;
    }
    symmetryrigt
    {
        type            symmetry;
        inGroups        1(symmetry);
        nFaces          4200;
        startFace       268800;
    }
    Outlet
    {
        type            patch;
        nFaces          900;
        startFace       273000;
    }
    Inlet
    {
        type            patch;
        nFaces          900;
        startFace       273900;
    }
    fluid_to_cilcen
    {
        type            patch;
        nFaces          600;
        startFace       274800;
    }
    fluid_to_ciltop
    {
        type            patch;
        nFaces          3600;
        startFace       275400;
    }
)

// ************************************************************************* //
