/*--------------------------------*- C++ -*----------------------------------*\
| =========                 |                                                 |
| \\      /  F ield         | OpenFOAM: The Open Source CFD Toolbox           |
|  \\    /   O peration     | Version:  4.0                                   |
|   \\  /    A nd           | Web:      www.OpenFOAM.org                      |
|    \\/     M anipulation  |                                                 |
\*---------------------------------------------------------------------------*/
FoamFile
{
    version     2.0;
    format      binary;
    class       polyBoundaryMesh;
    location    "constant/polyMesh";
    object      boundary;
}
// * * * * * * * * * * * * * * * * * * * * * * * * * * * * * * * * * * * * * //

7
(
    Outterwall
    {
        type            patch;
        nFaces          1800;
        startFace       271464;
    }
    symmetryleft
    {
        type            symmetryPlane;
        inGroups        1(symmetryPlane);
        nFaces          6000;
        startFace       273264;
    }
    symmetryrigt
    {
        type            symmetryPlane;
        inGroups        1(symmetryPlane);
        nFaces          4800;
        startFace       279264;
    }
    Outlet
    {
        type            patch;
        nFaces          936;
        startFace       284064;
    }
    Inlet
    {
        type            patch;
        nFaces          936;
        startFace       285000;
    }
    fluid_to_cilcen
    {
        type            patch;
        nFaces          600;
        startFace       285936;
    }
    fluid_to_ciltop
    {
        type            patch;
        nFaces          3600;
        startFace       286536;
    }
)

// ************************************************************************* //
