/*--------------------------------*- C++ -*----------------------------------*\
| =========                 |                                                 |
| \\      /  F ield         | OpenFOAM: The Open Source CFD Toolbox           |
|  \\    /   O peration     | Version:  4.0                                   |
|   \\  /    A nd           | Web:      www.OpenFOAM.org                      |
|    \\/     M anipulation  |                                                 |
\*---------------------------------------------------------------------------*/
FoamFile
{
    version     2.0;
    format      ascii;
    class       polyBoundaryMesh;
    location    "constant/polyMesh";
    object      boundary;
}
// * * * * * * * * * * * * * * * * * * * * * * * * * * * * * * * * * * * * * //

7
(
    Outterwall
    {
        type            patch;
        nFaces          1800;
        startFace       546528;
    }
    symmetryleft
    {
        type            symmetryPlane;
        inGroups        1(symmetryPlane);
        nFaces          12000;
        startFace       548328;
    }
    symmetryrigt
    {
        type            symmetryPlane;
        inGroups        1(symmetryPlane);
        nFaces          8400;
        startFace       560328;
    }
    Outlet
    {
        type            patch;
        nFaces          1872;
        startFace       568728;
    }
    Inlet
    {
        type            patch;
        nFaces          1872;
        startFace       570600;
    }
    fluid_to_cilcen
    {
        type            patch;
        nFaces          600;
        startFace       572472;
    }
    fluid_to_ciltop
    {
        type            patch;
        nFaces          3600;
        startFace       573072;
    }
)

// ************************************************************************* //
