/*--------------------------------*- C++ -*----------------------------------*\
| =========                 |                                                 |
| \\      /  F ield         | OpenFOAM: The Open Source CFD Toolbox           |
|  \\    /   O peration     | Version:  4.0                                   |
|   \\  /    A nd           | Web:      www.OpenFOAM.org                      |
|    \\/     M anipulation  |                                                 |
\*---------------------------------------------------------------------------*/
FoamFile
{
    version     2.0;
    format      ascii;
    class       polyBoundaryMesh;
    location    "constant/polyMesh";
    object      boundary;
}
// * * * * * * * * * * * * * * * * * * * * * * * * * * * * * * * * * * * * * //

7
(
    Outterwall
    {
        type            patch;
        nFaces          3600;
        startFace       946980;
    }
    symmetryleft
    {
        type            symmetry;
        inGroups        1(symmetry);
        nFaces          21600;
        startFace       950580;
    }
    symmetryrigt
    {
        type            symmetry;
        inGroups        1(symmetry);
        nFaces          13200;
        startFace       972180;
    }
    Outlet
    {
        type            patch;
        nFaces          1620;
        startFace       985380;
    }
    Inlet
    {
        type            patch;
        nFaces          1620;
        startFace       987000;
    }
    fluid_to_cilcen
    {
        type            patch;
        nFaces          1200;
        startFace       988620;
    }
    fluid_to_ciltop
    {
        type            patch;
        nFaces          7200;
        startFace       989820;
    }
)

// ************************************************************************* //
