/*--------------------------------*- C++ -*----------------------------------*\
| =========                 |                                                 |
| \\      /  F ield         | OpenFOAM: The Open Source CFD Toolbox           |
|  \\    /   O peration     | Version:  4.0                                   |
|   \\  /    A nd           | Web:      www.OpenFOAM.org                      |
|    \\/     M anipulation  |                                                 |
\*---------------------------------------------------------------------------*/
FoamFile
{
    version     2.0;
    format      ascii;
    class       polyBoundaryMesh;
    location    "constant/ciltop/polyMesh";
    object      boundary;
}
// * * * * * * * * * * * * * * * * * * * * * * * * * * * * * * * * * * * * * //

4
(
    ciltoptop
    {
        type            patch;
        nFaces          180;
        startFace       9800;
    }
    cilbottop
    {
        type            patch;
        nFaces          180;
        startFace       9980;
    }
    symmetrytop1
    {
        type            symmetry;
        inGroups        1(symmetry);
        nFaces          200;
        startFace       10160;
    }
    ciltop_to_fluid
    {
        type            mappedWall;
        inGroups        1(wall);
        nFaces          720;
        startFace       10360;
        sampleMode      nearestPatchFace;
        sampleRegion    fluid;
        samplePatch     fluid_to_ciltop;
    }
)

// ************************************************************************* //
