FoamFile
{
    version     2.0;
    format      ascii;
    class       dictionary;
    object      blockMeshDict;
}
convertToMeters 0.001;

vertices
(
    (3.196954309061945 -0.1395820395690752 0) //0
    (112.89244903874993 -4.928990772282968 0) //1
    (112.89244903874993 4.928990772282968 0) //2
    (3.196954309061945 0.1395820395690752 0) //3
    (3.196954309061945 -0.1395820395690752 1500) //4
    (112.89244903874993 -4.928990772282968 1500) //5
    (112.89244903874993 4.928990772282968 1500) //6
    (3.196954309061945 0.1395820395690752 1500) //7
    (0 0 0) //8
    (0 0 1500) //9
);

blocks
(
  hex ( 0 1 2 3 4 5 6 7 ) (50 1 100) simpleGrading (107 1 1)
  hex ( 8 0 3 8 9 4 7 9 ) (1 1 100) simpleGrading (0.1 1 1)
);

edges
(
    arc 4 7 (3.2 0.0 1500)
    arc 5 6 (113.0 0.0 1500)
    arc 0 3 (3.2 0.0 0)
    arc 1 2 (113.0 0.0 0)
);

boundary
(
    Outterwall { type patch; faces ((6 5 1 2));}
    cilcentop { type patch; faces ((9 4 7 9));}
    cilcenbot { type patch; faces ((8 3 0 8));}
    leftWedge { type symmetry; faces ((5 4 0 1));}
    rigtWedge { type symmetry; faces ((7 6 2 3));}
    leftcenWedge { type symmetry; faces ((4 9 8 0));}
    rigtcenWedge { type symmetry; faces ((9 7 3 8));}
    Outlet { type patch; faces ((4 5 6 7));}
    Inlet { type patch; faces ((3 2 1 0));}
);

mergePatchPairs
(
);
