FoamFile
{
    version     2.0;
    format      ascii;
    class       dictionary;
    object      blockMeshDict;
}
convertToMeters 0.001;

vertices
(
    (3.2 0 0) //0
    (113 0 0) //1
    (112.57000088436725 9.848598930485373 0) //2
    (3.187823033893586 0.2788983767925061 0) //3
    (3.2 0 1500) //4
    (113 0 1500) //5
    (112.57000088436725 9.848598930485373 1500) //6
    (3.187823033893586 0.2788983767925061 1500) //7
    (0 0 0) //8
    (0 0 1500) //9
);

blocks
(
  hex ( 0 1 2 3 4 5 6 7 ) (50 1 100) simpleGrading (107 1 1)
  hex ( 8 0 3 8 9 4 7 9 ) (1 1 100) simpleGrading (0.1 1 1)
);

edges
(
    arc 4 7 (3.196954309061945 0.1395820395690752 1500)
    arc 5 6 (112.89244903874993 4.928990772282968 1500)
    arc 0 3 (3.196954309061945 0.1395820395690752 0)
    arc 1 2 (112.89244903874993 4.928990772282968 0)
);

boundary
(
    Outterwall { type patch; faces ((6 5 1 2));}
    cilcentop { type patch; faces ((9 4 7 9));}
    cilcenbot { type patch; faces ((8 3 0 8));}
    symmetryleft { type symmetry; faces ((5 4 0 1));}
    symmetryrigt { type symmetry; faces ((7 6 2 3));}
    symmetryleftcen { type symmetry; faces ((4 9 8 0));}
    symmetryrigtcen { type symmetry; faces ((9 7 3 8));}
    Outlet { type patch; faces ((4 5 6 7));}
    Inlet { type patch; faces ((3 2 1 0));}
);

mergePatchPairs
(
);
