/*--------------------------------*- C++ -*----------------------------------*\
| =========                 |                                                 |
| \\      /  F ield         | OpenFOAM: The Open Source CFD Toolbox           |
|  \\    /   O peration     | Version:  2.1.x                                 |
|   \\  /    A nd           | Web:      www.OpenFOAM.org                      |
|    \\/     M anipulation  |                                                 |
\*---------------------------------------------------------------------------*/
FoamFile
{
    version     2.0;
    format      ascii;
    class       dictionary;
    object      topoSetDict;
}

// * * * * * * * * * * * * * * * * * * * * * * * * * * * * * * * * * * * * * //

actions
(
    // cilcen
    {
        name    cilcen;
        type    cellSet;
        action  new;
        source  boxToCell;
        sourceInfo
        {
          box (0 -1 -9) (0.0032 1 9);
        }
    }
    {
        name    cilcen;
        type    cellZoneSet;
        action  new;
        source  setToCellZone;
        sourceInfo
        {
            set cilcen;
        }
    }

    // fluid
    {
        name    fluid;
        type    cellZoneSet;
        action  clear;
    }
    {
        name    fluid;
        type    cellSet;
        action  add;
        source  cellToCell;
        sourceInfo
        {
            set cilcen;
        }
    }
    {
        name    fluid;
        type    cellSet;
        action  invert;
    }
    {
        name    fluid;
        type    cellZoneSet;
        action  new;
        source  setToCellZone;
        sourceInfo
        {
            set fluid;
        }
    }

);

// ************************************************************************* //
