/*--------------------------------*- C++ -*----------------------------------*\
| =========                 |                                                 |
| \\      /  F ield         | OpenFOAM: The Open Source CFD Toolbox           |
|  \\    /   O peration     | Version:  4.0                                   |
|   \\  /    A nd           | Web:      www.OpenFOAM.org                      |
|    \\/     M anipulation  |                                                 |
\*---------------------------------------------------------------------------*/
FoamFile
{
    version     2.0;
    format      ascii;
    class       polyBoundaryMesh;
    location    "constant/polyMesh";
    object      boundary;
}
// * * * * * * * * * * * * * * * * * * * * * * * * * * * * * * * * * * * * * //

10
(
    Outterwall
    {
        type            patch;
        nFaces          100;
        startFace       11840;
    }
    cilcentop
    {
        type            patch;
        nFaces          10;
        startFace       11940;
    }
    cilcenbot
    {
        type            patch;
        nFaces          10;
        startFace       11950;
    }
    leftWedge
    {
        type            symmetry;
        inGroups        1(symmetry);
        nFaces          5000;
        startFace       11960;
    }
    rigtWedge
    {
        type            symmetry;
        inGroups        1(symmetry);
        nFaces          5000;
        startFace       16960;
    }
    leftcenWedge
    {
        type            symmetry;
        inGroups        1(symmetry);
        nFaces          1000;
        startFace       21960;
    }
    rigtcenWedge
    {
        type            symmetry;
        inGroups        1(symmetry);
        nFaces          1000;
        startFace       22960;
    }
    Outlet
    {
        type            patch;
        nFaces          50;
        startFace       23960;
    }
    Inlet
    {
        type            patch;
        nFaces          50;
        startFace       24010;
    }
    defaultFaces
    {
        type            empty;
        inGroups        1(empty);
        nFaces          0;
        startFace       24060;
    }
)

// ************************************************************************* //
