/*--------------------------------*- C++ -*----------------------------------*\
| =========                 |                                                 |
| \\      /  F ield         | OpenFOAM: The Open Source CFD Toolbox           |
|  \\    /   O peration     | Version:  3.0.1                                 |
|   \\  /    A nd           | Web:      www.OpenFOAM.org                      |
|    \\/     M anipulation  |                                                 |
\*---------------------------------------------------------------------------*/
FoamFile
{
    version     2.0;
    format      ascii;
    class       volScalarField;
    object      p_rgh;
}
// * * * * * * * * * * * * * * * * * * * * * * * * * * * * * * * * * * * * * //

dimensions      [1 -1 -2 0 0 0 0];

internalField   uniform 101325;

boundaryField
{
    Inlet          { type prghTotalPressure;     p0 uniform 101325; }
    Outlet         { type outletPrghPressure; value uniform 101325; } //zeroGradient; } //  inletOutlet; inletValue uniform 101325; value uniform 101325; }//zeroGradient; }
    Outterwall     { type fixedFluxPressure;  value uniform 101325; }
    "fluid_to_.*"  { type fixedFluxPressure;  value uniform 101325; }
    ".*Wedge"      { type wedge; }
}

// ************************************************************************* //
