/*--------------------------------*- C++ -*----------------------------------*\
| =========                 |                                                 |
| \\      /  F ield         | OpenFOAM: The Open Source CFD Toolbox           |
|  \\    /   O peration     | Version:  3.0.1                                 |
|   \\  /    A nd           | Web:      www.OpenFOAM.org                      |
|    \\/     M anipulation  |                                                 |
\*---------------------------------------------------------------------------*/
FoamFile
{
    version     2.0;
    format      ascii;
    class       polyBoundaryMesh;
    location    "constant/polyMesh";
    object      boundary;
}
// * * * * * * * * * * * * * * * * * * * * * * * * * * * * * * * * * * * * * //

6
(
    cencil_to_fluid
    {
        type            wall;
        inGroups        1(wall);
        nFaces          100;
        startFace       1890;
    }
    cilcentop
    {
        type            patch;
        nFaces          10;
        startFace       1990;
    }
    cilcenbot
    {
        type            patch;
        nFaces          10;
        startFace       2000;
    }
    symmetryleftcen
    {
        type            symmetry;
        inGroups        1(symmetry);
        nFaces          1000;
        startFace       2010;
    }
    symmetryrigtcen
    {
        type            symmetry;
        inGroups        1(symmetry);
        nFaces          1000;
        startFace       3010;
    }
    defaultFaces
    {
        type            empty;
        inGroups        1(empty);
        nFaces          0;
        startFace       4010;
    }
)

// ************************************************************************* //
