FoamFile
{
    version     2.0;
    format      ascii;
    class       dictionary;
    object      blockMeshDict;
}
convertToMeters 0.001;

vertices
(
    (0 0 -1500) //0
    (3.2 0 -1500) //1
    (3.187823033893586 0.2788983767925061 -1500) //2
    (0 0 0) //3
    (3.2 0 0) //4
    (3.187823033893586 0.2788983767925061 0) //5
);

blocks
(
  hex ( 0 1 2 0 3 4 5 3 ) (10 1 100) simpleGrading (0.1 1 1)
);

edges
(
    arc 4 5 (3.196954309061945 0.1395820395690752 0)
    arc 1 2 (3.196954309061945 0.1395820395690752 -1500)
);

boundary
(
    cencil_to_fluid { type wall; faces ((5 4 1 2));}
    cilcentop { type patch; faces ((3 4 5 3));}
    cilcenbot { type patch; faces ((0 2 1 0));}
    symmetryleftcen { type symmetry; faces ((4 3 0 1));}
    symmetryrigtcen { type symmetry; faces ((3 5 2 0));}
);

mergePatchPairs
(
);
