/*--------------------------------*- C++ -*----------------------------------*\
| =========                 |                                                 |
| \\      /  F ield         | OpenFOAM: The Open Source CFD Toolbox           |
|  \\    /   O peration     | Version:  4.0                                   |
|   \\  /    A nd           | Web:      www.OpenFOAM.org                      |
|    \\/     M anipulation  |                                                 |
\*---------------------------------------------------------------------------*/
FoamFile
{
    version     2.0;
    format      ascii;
    class       polyBoundaryMesh;
    location    "constant/polyMesh";
    object      boundary;
}
// * * * * * * * * * * * * * * * * * * * * * * * * * * * * * * * * * * * * * //

4
(
    Inlet
    {
        type            patch;
        nFaces          1000;
        startFace       297000;
    }
    Outlet
    {
        type            patch;
        nFaces          1000;
        startFace       298000;
    }
    Outterwall
    {
        type            wall;
        inGroups        1(wall);
        nFaces          2000;
        startFace       299000;
    }
    fluid_to_cilcen
    {
        type            wall;
        inGroups        1(wall);
        nFaces          2000;
        startFace       301000;
    }
)

// ************************************************************************* //
