/*--------------------------------*- C++ -*----------------------------------*\
| =========                 |                                                 |
| \\      /  F ield         | OpenFOAM: The Open Source CFD Toolbox           |
|  \\    /   O peration     | Version:  3.0.1                                 |
|   \\  /    A nd           | Web:      www.OpenFOAM.org                      |
|    \\/     M anipulation  |                                                 |
\*---------------------------------------------------------------------------*/
FoamFile
{
    version     2.0;
    format      ascii;
    class       polyBoundaryMesh;
    location    "constant/polyMesh";
    object      boundary;
}
// * * * * * * * * * * * * * * * * * * * * * * * * * * * * * * * * * * * * * //

5
(
    Inlet
    {
        type            patch;
        nFaces          600;
        startFace       171400;
    }
    Outlet
    {
        type            patch;
        nFaces          600;
        startFace       172000;
    }
    Outterwall
    {
        type            wall;
        inGroups        1(wall);
        nFaces          2000;
        startFace       172600;
    }
    Innerwall
    {
        type            wall;
        inGroups        1(wall);
        nFaces          2000;
        startFace       174600;
    }
    defaultFaces
    {
        type            empty;
        inGroups        1(empty);
        nFaces          12000;
        startFace       176600;
    }
)

// ************************************************************************* //
